# File generated by Flopy version 3.3.6 on 10/15/2022 at 07:03:54.
BEGIN options
END options

BEGIN dimensions
  MAXBOUND  6
END dimensions

BEGIN period  1
  3 1316    -708.48000000
  3 1422    -354.24000000
  3 1436    -336.96000000
  3 1287     -71.71200000
  3 1421     -62.20800000
  3 1435    -371.52000000
END period  1

