# File generated by Flopy version 3.3.6 on 10/15/2022 at 07:03:54.
BEGIN options
  READASARRAYS
END options

BEGIN period  1
  recharge
    CONSTANT  1.38240000E-04
END period  1

