# File generated by Flopy version 3.3.6 on 10/15/2022 at 07:03:54.
BEGIN options
  SAVE_SPECIFIC_DISCHARGE
END options

BEGIN griddata
  icelltype
    CONSTANT  1
  k  LAYERED
    INTERNAL  FACTOR  1.0
          10.13644799      10.13644799       9.85478398       7.22727359       8.92166379       7.51377626       7.51377626       9.10483205      10.23494373      10.23494373       9.73123179       9.62841602       9.67507199       9.41155187       8.92166379       9.45907224       7.71085450       8.12989455       7.64190748       6.83061134
           6.83061134       6.65340449       4.16897287       4.16897287       4.97318390       7.81341128       7.81341128       7.64959704       7.64959704       8.75577629       7.60752009       7.60752009       5.45114852       5.45114852       5.47992024       5.47992024       3.66647044       3.98848326       3.98848326       3.98848326
           1.31224323       1.39104006       1.39104006       2.06375034       2.47319997       2.28009601       4.41391692       8.18648622       8.18648622       8.18648622       5.94380137       6.43101144       7.53433916       6.43567659       5.71821104       7.03468826       7.03468826       7.87691551       7.87691551       9.44092772
           9.44092772       9.57398373       8.83958379       9.05385604       8.74454370       8.74454370       9.86860783       9.78393594       9.80985614       9.19123208       9.56188801       9.99043188       9.47894426       9.43142390       9.40895998       9.96883172       9.96883172       8.93030385       9.37439972       9.25430381
          10.12607978      10.09324829       9.32601623      10.21679984      10.21679984       9.76233578       9.55065605       9.33206377       9.28454404      12.19622358      12.84940853      12.54441622      12.54441622      12.21091244      12.46751938      12.46751938       9.73727996      10.25913579      10.25913579       9.92390388
          10.49414382       8.99078369       7.99199988       8.24005413       8.24005413      10.04918420       9.70271970       9.16358375       9.83232006       9.89539179       9.68457581       9.56620804       9.56620804       9.56620804       8.79379220       8.59982385       9.29663975       8.74627184       8.74627184       9.91526381
           9.79862418       9.50400007       9.42537573      10.06300806      10.54511983       9.62841602       8.90006425       9.09619199      10.41897575       9.26640015       8.76355197       9.35193580      10.18656024       9.97057133       9.72305820       9.37912320       9.43920021       9.39427174       9.34502387       9.34502387
          10.03795224       9.00115189       9.42105569       9.57225622       7.65659509       7.63905596       7.13223349       8.45389450       9.54028785       9.77443212       7.55142919       7.53442953       7.52331551       7.51842480       7.51990603       7.58497808       7.71166378       7.83884993       7.96267206       8.07936789
           8.02648969       7.96454613       7.89541932       7.82120965       7.78514228       7.78831311       7.78965544       7.78912849       7.78674827       7.79037076       7.79210223       7.79189008       7.78974076       7.79954673       7.82101006       7.83965141       7.85490439       7.86630553       7.90601129       7.94031236
           7.96816652       7.98872743       7.94991677       7.85291379       7.75211944       7.65059634       6.61989859       6.60431524       6.56934508       6.51605063       6.44605124       6.42453949       6.45216902       6.46503460       6.46274533       6.44537077       6.40742554       6.35607587       6.29288201       6.21976407
           6.13894369       6.05287657       5.96417781       5.87554247       5.78966370       5.79624151       5.80798541       5.82453856       5.84539801       5.86992995       5.89738899       5.92694080       5.95768746       5.98869476       6.10185624       6.21089785       6.31250643       6.40359465       6.48139483       6.54354307
           6.58815101       6.61386327       6.05200914       6.05567388       6.05941524       6.06311953       6.06667421       6.06997127       6.07291053       6.07540268       6.07737200       6.07875864       6.01315828       5.94892635       5.88801451       5.83227353       5.78339707       5.74287022       5.71192438       5.69149980
           5.68221709       5.74199457       5.81137965       5.88826410       5.97031183       6.05502987       6.13984409       6.22217745       6.29952831       6.36954640       6.30986855       6.24254374       6.16961761       6.09330597       6.05416734       6.05339091       6.05276047       6.05229517       5.29295032       5.33176736
           5.39239140       5.47298039       5.57108569       5.69550039       5.84244421       5.99567836       6.15054690       6.30234424       6.29531581       6.28081745       6.25928966       6.23138658       6.19795601       6.16001373       6.11871259       6.07530751       6.03111733       5.92444731       5.82157599       5.72562908
           5.63952187       5.56587068       5.50691338       5.46444134       5.43974507       5.43357493       5.31156371       5.21197336       5.13782987       5.09138607       5.07405313       5.08635769       5.12792589       5.19749471       5.76716533       5.80314950       5.85587710       5.92374602       6.00469412       6.11749246
           6.25871373       6.40283635       6.54548121       6.68231414       6.73302123       6.77221808       6.79871370       6.81170303       6.86984444       6.97137131       7.05414579       7.11565281       7.15402351       7.16118455       7.14382582       7.10247475       7.03838777       6.95076885       6.84228022       6.71896157
           6.58455986       6.44315883       6.08044024       5.72603975       5.39072563       5.08468623       5.00136541       5.14329484       5.32201704       5.53210165       1.92811970       1.90044344       1.88161714       1.87221282       1.87251623       1.88251814       1.90191465       1.93011641       1.96626653       2.00926660
           2.00927171       2.01482008       2.02574313       2.04170896       2.06223246       2.08669003       2.11433855       2.14433793       2.17577665       2.11005861       2.04682147       1.98798666       1.93534185       1.89048662       1.85478388       1.82931843       1.81486402       1.81185986       1.77185885       1.74461476
           1.73095540       1.73129580       1.74562562       1.77350946       1.81410006       1.86616412      10.04918420       9.66384938       9.47249837       9.15746585       9.50553954       9.25148424       8.88478768       8.38130974       8.47963402       8.48773356       8.80233484       8.76338351       8.83788800       8.74526417
           8.22107403       7.69492172       8.19702059       8.29578155       7.71205890       7.50359900       7.55606854       7.70198979       7.79299937       7.96293660       7.73209645       7.47378003       7.66768144       7.74287444       7.55854222       7.81191072       7.86081003       6.99254878       6.21380521       6.06062494
           5.97658331       5.92793769       5.68358680       5.54457542       6.04725100       6.13906555       6.16400195       6.19380897       6.12049123       6.22042702       6.07582801       5.16481403       4.80778604       4.54975904       4.62109023       3.92281561       3.51132161       3.88657262       4.61089063       5.78558190
           6.34240848       6.20668537       6.25803898       6.47853559       6.43431801       6.12106387       4.50893280       4.29431839       5.30340716       4.80254161       4.80274334       4.39585460       4.19467572       3.06995849       2.45763523       3.61291770       4.26747107       4.06824583       4.31222598       4.59530779
           4.66964842       4.66220170       4.62686592       3.79488046       3.79065164       4.01965303       4.01800367       3.88105151       3.97646373       4.35879389       3.36153209       2.91060983       2.16297064       1.60532930       1.86233594       1.88081417       2.12334094       1.89479983       1.76574460       1.54325273
           1.54612795       1.54612795       1.54612795      10.04918420       1.54612795      10.04918420       1.54612795      10.04918420       1.54612795      10.04918420       1.54612795      10.04918420       1.54612795      10.04918420       1.54612795      10.04918420       1.54612795      10.04918420       1.54612795      10.04918420
           1.54612795      10.04918420       1.54612795      10.04918420      10.04918420      10.04918420      10.04918420      10.04918420      10.04918420      10.04918420      10.04918420      10.04918420      10.04918420      10.04918420      10.04918420      10.04918420      10.04918420       1.54612795       1.54612795      10.04918420
          10.04918420       1.54612795       1.54612795      10.04918420       1.54612795      10.04918420      10.04918420      10.04918420      10.04918420       1.54612795       1.54612795      10.04918420      10.04918420       1.54612795      10.04918420      10.04918420       1.54612795       1.54612795      10.04918420      10.04918420
          10.04918420       1.54612795      10.04918420      10.04918420       1.54612795      10.04918420       1.54612795       1.54612795      10.04918420      10.04918420       1.54612795      10.04918420      10.04918420       1.54612795      10.04918420       1.54612795      10.04918420       1.54612795       1.54612795      10.04918420
           1.54612795      10.04918420      10.04918420       1.54612795      10.04918420       1.54612795       1.54612795       1.54612795      10.04918420       1.54612795       1.54612795       1.54612795      10.04918420      10.04918420       1.54612795       1.54612795       1.54612795      10.04918420       1.54612795      10.04918420
          10.04918420      10.04918420      10.04918420      10.04918420       1.54612795       1.54612795      10.04918420      10.04918420      10.04918420      10.04918420      10.04918420       1.54612795       1.54612795       1.54612795      10.04918420      10.04918420      10.04918420       1.54612795      10.04918420      10.04918420
          10.04918420      10.04918420       1.54612795       1.54612795       1.54612795       1.54612795       1.54612795       1.54612795       1.54612795       1.54612795      10.04918420      10.04918420       1.54612795       1.54612795       1.54612795       1.54612795       1.54612795      10.04918420       1.54612795      10.04918420
          10.04918420       1.54612795       1.54612795       1.54612795       1.54612795       1.54612795      10.04918420      10.04918420       1.54612795      10.04918420       1.90209039       1.84105972       4.85594611       4.74933884       1.54612795      10.04918420       1.54612795      10.04918420       8.58675788       8.38060970
          10.04918420       1.54612795       1.54612795      10.04918420       1.54612795       1.54612795       1.54612795       1.54612795      10.04918420      10.04918420      10.04918420      10.04918420      10.04918420      10.04918420       1.96477872       1.83940205       4.85663049       4.85526173       1.54612795       8.61423597
           8.55927978       1.54612795       1.54612795      10.04918420       1.90374805       1.77837138       4.75002321       4.74865446       8.40808780       8.35313161       4.26305657       3.77460012      10.04918420       1.54612795      10.04918420      10.04918420       1.54612795       4.23616133       3.42142690       7.64959704
          10.04918420      10.04918420      10.04918420       6.56338310       6.46433558       4.51568468       7.19501173       7.37698118       6.95301670       5.43108603       6.81730818       5.84325313       1.73359204       1.97160758       2.12778325       1.59698404       1.67038027       5.66055783       5.16260426       4.77955300
           1.98472191       1.87265567       6.05437368       6.26591492       6.37617856       5.49648792       5.08371730       5.76973298       5.84671187       5.90546589       6.43559199       5.97533941       6.42702870       6.05240923       6.19799129       5.57167470       6.10960916       5.78518718       5.67160944       6.07554945
           6.04216270       6.05734265       6.59021470       6.61131797       6.72149947       7.80621589       7.77137268       7.80839316       7.90169547       8.05609050       7.62867093       8.06269514       7.46043138       7.69305211       8.15367557       2.03695938       5.03712359       1.54612795       2.02596468       1.76887906
           1.69274916       4.80459474       4.56884573       4.82018789       1.79776386      10.04918420       6.71755526       5.76335785       6.24136820       6.72830319       6.60094619       6.27757909       5.38622196       4.78889043       4.99083314       7.22879974       7.01643979       7.40012829       7.24646685       7.04584829
           6.90493234       5.65933383       5.22205525       6.67132017       6.84071553       5.56877014       6.13658166       5.78712847       1.69600383       1.74036359       1.80208361       1.96052428       1.90176256       1.89269399       2.05102671       2.14868476       2.15305869       1.96333708       1.62928419       1.66239006
           1.76239355       1.66401504       5.71176644       5.55410763       5.44618054       6.22148149       4.90362269       5.08759699       5.30115941       4.86895783       4.88764980       1.98237664       2.03809262       1.85505588       1.95267882       1.94267207       6.10752212       5.96193146       6.28864760       6.20762272
           6.34082398       6.26557764       5.40540963       5.87861067       5.70695062       5.06739242       5.21008797       5.76581719       5.85803625       5.80593668       6.05569605       5.85542872       5.83014584       5.90928268       5.80304850       6.01787189       6.32045887       6.47362035       6.21534715       6.06274576
           5.93701819       6.39564041       6.25195267       6.05382544       6.05076978       6.05194363       6.02679198       6.16003748       6.28734617       6.10873557       5.62288861       5.63558055       6.00260471       6.20816695       5.75247715       6.08203020       6.07056202       5.87512960       6.08245882       6.06194662
           6.05287879       6.79789551       6.63324223       6.44467975       6.54273974       6.60536479       6.57392176       6.59487726       6.72404575       7.80467502       7.82844153       7.76855292       7.76981653       7.78109046       7.77755297       7.81951445       7.80243898       7.80730250       7.87362215       7.92109968
           8.00423439       7.95516460       7.47295939       7.78987354       7.63067300       7.48548118       7.89869452       8.05464010       8.08578103       1.93486223       4.96760061       1.74559954       4.63699996       1.85293851       1.77330822       6.89557867       6.59802719       5.75266522       5.29123660       5.96166718
           5.01577984       5.40449320       7.27184390       6.86307873       7.33524762       7.14010543       6.86886061       5.72805303       6.49735526       5.37724257       5.50390864       5.71260466       5.98332047       1.85900301       2.06537614       1.90572745       1.81530211       1.91722925       2.04042457       1.97142083
           1.98332031       2.16546246       2.09531559       2.11608768       2.11727748       2.05339472       1.71453944       1.65081497       6.08226336       5.84173926       5.53782018       5.27425511       5.43777080       6.24732101       5.75832419       6.06734045       5.33657719       4.93383158       4.89878011       1.97730401
           2.02107265       1.83430278       6.15674629       6.31270862       6.07768472       5.31341704       5.83666347       6.18551149       6.00131008       6.39433930       5.86702171       5.92140367       6.09740694       5.75943869       6.12097988       6.51537522       5.90170336       6.32441136       6.14562948       5.90069195
           6.04975422       6.22298339       6.05522789       6.05402672       5.66343001       5.72225111       5.90436079       6.30004126       5.82184630       6.07768583       6.06619274       5.96398267       6.05098354       6.76074116       6.68178969       6.31883152       6.48836247       7.80434522       7.77337418       7.77859292
           7.58398485       7.95218202       7.77772563       7.80538169       7.85917252       7.91225569       7.79805798       7.80116183       7.85009266       7.96087473       7.81896351       8.05406739       7.48079089       7.57290434       7.96901460       7.93414220       1.84018075       1.80730965       6.85824664       6.95533052
           6.68458135       6.23962454       6.56954906       5.65340173       5.91911482       6.32636371       5.83888970       1.91834532       2.09627018       1.84911179       1.90017122       1.93117202       1.96443469       2.06213199       2.08334175       6.05257310       6.16342767       6.12401178       5.31683082       5.38256447
           5.81687296       5.58326055       5.37951167       1.81835278       6.30953349       6.27912913       6.44425987       6.37986486       6.50181587       5.97150032       6.21125008       6.21947989       5.83000644       5.79758721       5.99421784       6.06518141       6.07194618       6.05432558       6.05458504       6.73699496
           7.80311900       7.55870281       7.64044426       7.57751821       7.94985659       7.85861787       7.89904067       7.87182396       7.79296409       7.49135012       7.00152800       6.66947775       6.90029605       6.33477558       6.05942587       2.15732171       6.21188929       6.37075717       6.32310358       6.49261161
           6.32623325       5.76258913       5.86895552       6.06917897       6.06051745       7.70593058       6.72818943       5.98033592       6.18581931       8.95018100       1.54612795       8.56206830       8.04466467       8.40529928       4.25746104       4.26865210      10.04918420       5.93708918       1.82895505       4.99591922
           1.61807051       4.62754991       6.14258112       4.49739080       4.92973775       7.54321659       6.96208799       7.34823257       7.01936553       5.50137456       6.61614821       1.72992182       1.95450476       2.10893012       1.54188727       1.47100964       5.65208520       5.09661666       4.55430856       1.91178917
           1.73029542       6.16977053       6.40767890       6.16609975       5.03740965       5.78276134       5.86482143       5.69012160       6.12617216       6.67099275       5.89627322       6.13437299       6.25518467       5.52169485       5.57955811       5.89738785       6.33748397       5.71790477       6.07056544       6.04853743
           6.88704953       6.48334883       6.69819867       7.82853516       7.82851674       7.76664869       7.77663518       7.82197815       7.87941780       8.05267087       7.39942062       8.08126514       8.06332265       1.69632904       6.42962167       5.58303122       5.71899559       1.89188807       1.99232244       2.01625723
           2.07350474       5.99418537       5.42432336       5.92920676       5.59784950       6.37532404       5.94357623       6.05550071       6.99072318       7.69248936       7.84713311       7.77490049       6.87582695       6.03630545       6.18815605       6.27499063       6.27702705       6.20019478       5.81851426       5.96519893
           6.06800715       6.05690769       6.62534844       8.78958860       8.15030088       3.76900460       3.78019565       2.01636804       5.18237869       1.57872196       4.42126885       5.83582467       4.86360942       7.02645417       7.33301746       6.97990439       5.63982618       6.41881852       1.82787100       1.98565801
           2.08047433       1.55737829       5.65070082       5.21664275       1.75048914       6.19963072       6.35015300       5.21996913       5.90041633       5.89688076       5.72431640       6.21515116       6.15909131       6.38802621       6.06573007       6.60910715       7.81929250       7.78839627       7.80926377       7.88322676
           7.98555793       7.43643741       1.80849772       5.90543053       5.85618720       1.94949650       2.04941283       2.10152072       5.52676537       6.10229370       5.97803099       6.05525488       6.87280223       7.85800321       6.72872976       6.16351996       6.13998748       6.24474009       5.92201020       6.06857422
           6.06081885       6.42213976       2.08269074       5.85510493       6.30423725       6.12284163       7.75032106       5.81758872       2.00232437       2.07956901       2.11553736       2.14380922       5.65961148       5.89182373       5.94338367       6.05747073       7.79371722       6.61697169       6.13461156       6.14765454
           6.08860446       5.93940627       6.06369643       6.05634119       6.37686216       6.09866166       4.43761583       1.54612795      10.04918420       6.20359831       1.58927980       4.76561906       1.85930924       5.59229577       4.73865118       6.09504174       6.04985087       6.09058075       6.77732932       7.59804859
           7.66364408       5.32128730       5.85917141       2.00709531       4.51359742       1.96395371       6.41352474       6.08421005       5.93244577       7.82560703       7.84936767       8.16317046       7.52094239       1.67863546       7.63975700       4.38701093      10.04918420      10.04918420      10.04918420       4.43125506
           4.62841179       7.38859548       6.75385557       7.15802317       6.92861514       5.50811671       6.77394576       1.71295913       2.15398290       1.54724630       1.51492503       5.14740785       4.62428246       1.94289729       1.79453318       6.10719938       6.40406413       6.35185922       5.02263253       5.76754059
           5.79386295       6.00359508       6.56236146       5.93965957       6.05268668       5.52874839       5.53303301       6.01496080       6.21565127       5.67672188       6.07399486       6.27014036       6.05282168       6.75139811       6.56730450       6.74212945       7.81962522       7.75144902       7.81790964       7.84282847
           8.06810361       7.42153061       8.13826641       8.19101882       1.66063803       5.61738142       6.07948038       6.92046479       6.21766885       6.49798523       8.77494465       8.06262307       6.25892288       7.83370376       7.94469840       6.01623659       5.88416770       2.08378558       5.80653027       6.56180016
           6.04503326       3.49567265       5.05313636       6.83182273       7.68965105       4.96419832       5.48116818       6.34910008       1.78424717       2.02610881       6.55262609       7.84915632       7.34442075       1.68565503       1.63394569       7.76905002       3.74349550      10.04918420       3.79456391       7.70018111
           6.85011370       6.58319254       7.14716243       7.10084899       4.94172703       1.59880241       1.63957023       2.14902301       2.10527062       1.33833577       4.86202766       4.96960161       4.07128452       4.53144650       1.88539533       1.94639171       1.67733142       1.81531652       6.11582461       6.51890241
           4.88775714       5.69279218       5.75847914       6.73874783       5.93804869       5.98181061       6.05075439       6.05115296       5.35755228       5.79003077       5.54523521       5.56722352       6.11756105       6.07940945       6.06471004       6.71957457       7.00877597       7.84647154       7.82411135       7.84795891
           8.18127571       8.12375084       7.32531940       7.42622212       8.28103173       1.46898410       5.52334936       5.46114069       6.98346988       6.14396089       6.30117091       8.94088333       7.71492734       6.39641926       8.02898618       6.04423126       6.45258220      10.04918420       4.01768285       7.33109574
           6.56960364       7.37125604       7.11120243       6.93621805       5.26878753       4.62836122       1.51078007       2.05788995       1.47363981       4.68587826       4.16282681       1.92973612       1.75111376       5.89284927       6.48047464       4.52493289       4.74556752       5.74237778       5.67893947       5.99776983
           6.53311572       5.99879215       6.04931112       5.35452586       6.13611883       6.10438177       6.05872311       6.92791020       7.04572663       6.96545122       7.84431449       7.87421764       8.21705157       7.41587842       8.36244265       1.43747634       1.50734418       5.39563331       7.16782918       5.96996298
           6.21317269       6.04545432       6.48791748      10.04918420       7.36602267       6.03678113       6.05159412      10.04918420       1.54612795       7.64959704       7.64959704       2.12334837       1.90782222       7.84927183       2.17742026       6.03494070       5.38386330       7.16857893       4.10644763       5.62995540
           7.14486638       7.35364886       1.54173962       7.19705766       7.64959704       7.64959704       7.33941852       4.27957062       5.65934479       1.84669145       7.52493140       7.64959704       1.54612795       7.70333581       7.49547361       4.95482513       4.61366157       8.91765641       8.18048729       1.61100573
           5.08842486       8.67377498       8.27586945       9.26450872      10.04918420       5.42248082       1.36571193       1.92495517       3.97837171       3.14971686       2.00711330       1.79319254       4.01872289       6.32443281       6.04588524       6.26260734       6.12902532       7.85292736       8.12124460       7.21188674
           7.81192254       5.26262733      10.04918420       9.82868963       6.05818135       7.86006725      10.04918420       1.31224323       2.32149783       1.70229518       7.64959704       7.38869701       3.19975939       5.59982272       2.17987700       8.03960478       7.98250554       4.74090813       5.12011752       4.25186549
           1.54169670       4.69026120       7.98385752       9.72343085       6.78082559       1.55868132       2.13585261       4.28385102       1.96133851       1.69544035       6.07099758       6.04719936       7.88259641       8.35540294       5.72351168       6.09261936       6.20792452       7.86006725      10.04918420       1.31224323
           4.59178175       7.86006725       1.31224323       9.44092772       4.87142255       6.23670438       6.03003424       5.66885040       4.45683215       4.06352224       5.96025195       6.07003697       6.25203247       2.94324569       4.03290212       5.17346379       4.26840377       6.00970541       6.94770705       7.64959704
           1.54612795       9.14032870       8.85200939       7.47608053       1.86097250       5.35876464       8.83788380       6.04613080       9.70271970      10.04918420       2.33207768       1.95738315       1.56435317       4.41560469       7.63814325       6.00163144       6.51746616       8.87575279       9.44092772       5.80300513
           4.64173483       6.25137776       6.25556597       3.26424804       8.36429466       6.04219198       9.27691329       9.44092772       6.27904363       1.54612795       5.01631877       1.39104006       4.28836311       2.16881319       8.22225279       7.10285677       6.35423107       4.91328601       5.68344817       8.10827637
           5.85222795       4.97532786       4.79959049       6.89439575       7.89207650       8.45327279       7.89038797       7.64959704       7.21043326       2.95499290       5.96521729       1.87559079       1.94852240       2.19452351       5.18322581       7.86006725       1.31224323       5.95122123       1.54612795       1.53707218
           1.68943810       2.30115751       5.37419854       6.05553350       9.64803705       1.69394538       1.63258214       4.31890860       3.92798691       4.85736184       3.20256336       8.65567395       9.44092772       9.44092772       5.12499620       1.39104006       2.90641353       5.41370153       6.53979528       5.17774194
           7.08187623       7.81341128       7.68180311       6.39988818       4.59623428       2.26575442       9.44092772       4.98392214       7.81341128       3.19928215       6.02838644       7.66354080       7.19172861       7.46646022       1.86341415       1.64789064       7.88060284       8.22722408       5.98230842       4.34433026
           4.35064027       3.08539720       5.27325456       8.63018215       9.10775868       2.00502465       6.98352590       7.66472006       6.03186827       6.77204563       3.99601992       6.68576929       1.57646511       2.38820802       1.75059283       2.14109132       4.79766028       5.04643660       7.19411996       7.38822613
           2.00468409       9.44092772       7.87859130       6.00976657       6.23990597       6.96038620       1.61312690       5.94513974       4.48159431       4.07913634       3.90094138       6.39787305       4.62013819       5.39525055       5.81595938       8.12492618       7.22238469       7.72721016       7.00702064       8.42551651
           9.23180139       8.83213479       8.27183036       7.65363092       6.38897141       6.29906363       5.74532804       6.20998854       6.37861112       6.48061365       4.20212571       6.14249856       9.00996207       2.04314474       6.34863660       6.08241734       6.45651151       6.49325552       8.24496316       7.14739228
           6.66642476       5.18434692       3.85424454       5.79132281       7.90544636       8.00612242       8.39991625       7.86006725       1.31224323       1.54464939       4.87836289       9.44092772       6.20683190       1.56648151       1.77457987       3.46572521       6.22709988       2.19242371       8.06253733       4.01911688