# File generated by Flopy version 3.3.6 on 10/15/2022 at 07:03:54.
BEGIN options
  PRINT_OPTION  all
END options

BEGIN nonlinear
  OUTER_MAXIMUM  200
END nonlinear

BEGIN linear
  INNER_MAXIMUM  100
  LINEAR_ACCELERATION  bicgstab
END linear

