# File generated by Flopy version 3.3.6 on 10/15/2022 at 07:03:54.
BEGIN options
  BUDGET  FILEOUT  project.cbc
  HEAD  FILEOUT  project.hds
END options

BEGIN period  1
  SAVE  HEAD  ALL
  SAVE  BUDGET  ALL
END period  1

