# File generated by Flopy version 3.3.6 on 10/15/2022 at 07:03:54.
BEGIN griddata
  strt  LAYERED
    INTERNAL  FACTOR  1.0
          17.53591156      17.53591156      17.45310402      17.36550140      17.26653290      17.10676384      17.10676384      17.08646393      17.10916519      17.10916519      17.13379860      17.15892220      17.17344475      17.16772079      17.13580132      17.08467674      17.01955986      16.94905853      16.90856934      16.92017746
          16.99003029      17.13776016      17.64666748      17.64666748      17.87495041      18.06398964      18.06398964      18.10050392      18.10050392      18.10051048      18.09295539      18.06381120      18.02177084      17.96257265      17.86101720      17.76714838      17.62715328      17.61122322      17.33742905      17.33742905
          15.51198864      18.38323975      18.38323975      20.54846764      22.09066582      23.28756523      23.96644974      24.54297638      24.54297638      24.54297638      24.73602801      24.83733998      25.10274063      25.37382333      25.68278122      25.90253984      26.06916090      26.27962826      26.41426886      26.44783974
          26.49538422      26.54737282      26.54737282      26.70444489      26.81533241      26.81533241      27.13789940      27.37251854      27.66298485      27.99584389      28.39817810      28.74945450      29.07226753      29.34735298      29.56551933      29.72164726      29.72164726      29.83351898      29.86990738      29.86990738
          29.65055084      29.45598602      29.13104439      28.70954895      28.70954895      27.73991394      27.38142014      27.38142014      26.70623398      26.47754097      26.36151505      26.29376793      26.29376793      26.15225029      25.82838440      25.82838440      24.74437714      24.09920311      24.09920311      22.62514687
          21.80702591      20.93299675      19.98369026      18.98708534      18.98708534      17.86941910      16.88936424      17.20077515      17.49247169      17.69085121      17.81308556      17.88638115      17.88638115      17.88638115      17.87713432      17.85742950      17.82458115      17.73657227      17.73657227      17.68170738
          25.04940033      25.04940033      27.29586601      27.29586601      28.69034767      29.04537010      29.54037666      29.82612801      29.88324165      29.79724503      29.39679718      29.05769539      28.59292793      28.03665924      26.21868134      25.37980843      25.37980843      22.77177620      22.77177620      19.48368263
          19.48368263      18.15112877      18.22188187      18.22188187      18.27764511      18.33861542      18.61145020      19.32345390      21.32787132      21.32787132      16.97729225      16.98079420      16.98112041      16.97826098      16.97230278      16.96399796      16.95359883      16.94085029      16.92613970      16.90991402
          16.89185189      16.87331650      16.85487103      16.83707594      16.81934997      16.80223170      16.78736323      16.77519634      16.76610069      16.74989631      16.73753192      16.72938319      16.72569773      16.73207846      16.74833150      16.76847207      16.79188820      16.81786842      16.83841704      16.86011599
          16.88230595      16.90431270      16.92396277      16.94065912      16.95539923      16.96773521      16.88232689      16.86582977      16.85484747      16.84971369      16.85058440      16.86013644      16.87807959      16.90116536      16.92869229      16.95982399      16.99331725      17.02845169      17.06415976      17.09935650
          17.13297246      17.16398624      17.19145551      17.21454563      17.23255501      17.23925239      17.24011834      17.23512653      17.22442865      17.20834974      17.18737836      17.16215170      17.13343627      17.10210457      17.07261979      17.04236663      17.01226430      16.98322745      16.95613835      16.93182009
          16.91101156      16.89434503      16.31993713      16.31696104      16.31200416      16.30521709      16.29680605      16.28702662      16.27617594      16.26458369      16.25260211      16.24059525      16.22650971      16.21319169      16.20104586      16.19044125      16.18170009      16.17508797      16.17080579      16.16898367
          16.16967697      16.16746276      16.16781019      16.17070869      16.17607021      16.18373182      16.19346073      16.20496135      16.21788422      16.23183670      16.24532080      16.25900086      16.27246121      16.28529287      16.29615185      16.30470820      16.31165606      16.31678431      21.20100555      21.19694594
          21.20671571      21.23001801      21.26614482      21.30765768      21.35329523      21.40801158      21.47014418      21.53780518      21.60688907      21.67734644      21.74703646      21.81384164      21.87573214      21.93082744      21.97745351      22.01419364      22.03993149      22.04955111      22.04709414      22.03263523
          22.00661370      21.96982022      21.92337271      21.86868249      21.80741126      21.74142075      21.66173331      21.58175292      21.50390975      21.43056902      21.36395915      21.30610406      21.25876163      21.22337035      25.24138260      25.22480894      25.21557255      25.21395406      25.22000267      25.23874660
          25.26961633      25.30646188      25.34816372      25.39345474      25.42798316      25.46367550      25.49944726      25.53421155      25.56165094      25.58093170      25.59672913      25.60856321      25.61607437      25.61877990      25.61685209      25.61034951      25.59946973      25.58940067      25.58044825      25.56802718
          25.55251486      25.53438263      25.49014979      25.44519197      25.40087519      25.35854599      25.32243174      25.29362974      25.27007392      25.25248001      18.03116722      18.00396839      18.00188503      18.02498044      18.07255289      18.14315690      18.23464722      18.34424395      18.46861705      18.60398750
          18.72932036      18.85772924      18.98531250      19.10819359      19.22263883      19.32517085      19.41267428      19.48249037      19.53249779      19.52015331      19.48685580      19.43361697      19.36205447      19.27434269      19.17314669      19.06154128      18.94291752      18.82087975      18.68221421      18.54805599
          18.42248141      18.30930600      18.21196854      18.13342656      18.07606654      18.04163133      16.58889580      16.66094675      16.63633869      16.55960001      16.55141084      16.59027658      16.56622953      16.56675721      16.57839059      16.57870225      16.48138202      16.48850854      16.47793762      16.45445970
          16.44602402      16.43578995      16.41387183      16.42170219      16.38898081      16.53663582      16.38484351      16.35291212      16.34560488      16.33150047      16.38479359      16.35542524      16.29331087      16.32548138      16.26746167      16.24929356      16.24678120      16.22589418      16.21856296      16.28243112
          16.30233499      16.25555173      16.23702432      16.25609083      16.12570805      16.11983489      16.17052908      16.18308492      16.21314921      16.26701606      16.12793778      16.24718086      16.36243689      16.46729009      16.55423364      16.33728328      16.23072897      16.01383232      16.00528131      16.10353133
          15.97178365      16.26427762      16.22697486      15.98195417      15.94329153      16.03510818      15.98478496      15.92196037      15.87664275      15.96927376      15.96850364      15.92191201      15.88861494      15.80452556      15.85014848      15.96500564      15.92752614      15.85709519      15.76767522      15.75119058
          15.98068154      15.96910101      15.69020694      15.67417738      15.69395209      15.88228381      15.86819202      15.77400450      15.67945932      15.74638917      15.63937707      15.58573851      15.65714218      15.69635399      15.73998055      15.73951521      15.73340764      15.58644058      15.71997246      15.57916170
          15.51198864      15.51198864      15.51198864      16.58889580      15.51198864      16.58889580      15.51198864      16.58889580      15.51198864      16.58889580      15.51198864      16.58889580      15.51198864      16.58889580      15.51198864      16.58889580      15.51198864      16.58889580      15.51198864      16.58889580
          15.51198864      16.58889580      15.51198864      16.58889580      16.58889580      16.58889580      16.58889580      16.58889580      16.58889580      16.58889580      16.58889580      16.58889580      16.58889580      16.58889580      16.58889580      16.58889580      16.58889580      15.51198864      15.51198864      16.58889580
          16.58889580      15.51198864      15.51198864      16.58889580      15.51198864      16.58889580      16.58889580      16.58889580      16.58889580      15.51198864      15.51198864      16.58889580      16.58889580      15.51198864      16.58889580      16.58889580      15.51198864      15.51198864      16.58889580      16.58889580
          16.58889580      15.51198864      16.58889580      16.58889580      15.51198864      16.58889580      15.51198864      15.51198864      16.58889580      16.58889580      15.51198864      16.58889580      16.58889580      15.51198864      16.58889580      15.51198864      16.58889580      15.51198864      15.51198864      16.58889580
          15.51198864      16.58889580      16.58889580      15.51198864      16.58889580      15.51198864      15.51198864      15.51198864      16.58889580      15.51198864      15.51198864      15.51198864      16.58889580      16.58889580      15.51198864      15.51198864      15.51198864      16.58889580      15.51198864      16.58889580
          16.58889580      16.58889580      16.58889580      16.58889580      15.51198864      15.51198864      16.58889580      16.58889580      16.58889580      16.58889580      16.58889580      15.51198864      15.51198864      15.51198864      16.58889580      16.58889580      16.58889580      15.51198864      16.58889580      16.58889580
          16.58889580      16.58889580      15.51198864      15.51198864      15.51198864      15.51198864      15.51198864      15.51198864      15.51198864      15.51198864      16.58889580      16.58889580      15.51198864      15.51198864      15.51198864      15.51198864      15.51198864      16.58889580      15.51198864      16.58889580
          16.58889580      15.51198864      15.51198864      15.51198864      15.51198864      15.51198864      16.58889580      16.58889580      15.51198864      16.58889580      15.70388544      15.77561032      15.95779864      15.97997877      15.51198864      16.58889580      15.51198864      16.58889580      16.56038247      16.59671037
          16.58889580      15.51198864      15.51198864      16.58889580      15.51198864      15.51198864      15.51198864      15.51198864      16.58889580      16.58889580      16.58889580      16.58889580      16.58889580      16.58889580      15.70230675      15.70546412      15.95518598      15.96041130      15.51198864      16.56143980
          16.55932514      15.51198864      15.51198864      16.58889580      15.77403164      15.77718901      15.97736611      15.98259143      16.59776770      16.59565304      15.78182980      15.96864603      16.58889580      15.51198864      16.58889580      16.58889580      15.51198864      15.67332415      15.72213544      18.10050392
          16.58889580      16.58889580      16.58889580      25.56738250      25.51951499      25.29954043      25.63100227      25.65761510      25.57670193      25.17888934      25.39348171      25.13964540      19.20630149      19.10178312      19.74214362      18.37816496      17.87960997      21.82036206      21.71692662      21.23668375
          19.11381419      18.27487221      22.14337339      21.90455825      21.54761134      21.17777779      21.05842520      17.29664832      17.17741094      17.25128722      17.04598775      17.13961982      16.23448700      16.31552370      16.22393796      16.14375864      16.16900063      16.14366577      16.15563378      16.29085454
          16.22790164      16.33393520      16.94559755      16.84070346      16.79177861      16.67957326      16.77367623      16.75181323      16.78273171      16.89859283      16.24671539      16.24876882      16.99627444      16.98802340      16.90851569      15.58143093      15.91886870      15.51198864      15.73585988      15.89648615
          15.74425126      15.96143578      16.01629604      15.95282395      17.74620698      16.58889580      25.58105165      25.46809936      25.52243230      25.54812550      25.54422170      25.50441472      25.37849609      25.27303750      25.36056678      25.63556047      25.61115631      25.66481746      25.63279653      25.59450869
          25.52800448      25.18153336      25.21594582      25.34969720      25.44130530      22.13362809      25.18838840      25.15914734      18.89782416      19.04018861      19.31068403      19.23492350      19.06836905      18.68195603      18.62757609      19.25618934      19.65717438      19.65555449      18.26315017      18.56750232
          17.88821350      18.02723563      21.90615905      21.80629116      21.57672251      21.59708290      21.50894015      21.61503255      21.80146356      21.34091807      21.11357126      18.94163429      19.41142541      18.16979829      18.61581345      18.47123846      22.07182745      22.13156157      21.80881838      21.95882094
          21.63991231      21.47122387      21.15874902      21.29645681      21.25936275      21.11491900      21.10227178      17.28221764      17.24455742      17.27011912      17.11710445      17.19345714      17.20683679      17.15117068      17.26251491      17.20655194      17.08937048      17.00282566      17.06064544      17.09621367
          17.17000779      16.21891038      16.27006155      16.29991780      16.33359139      16.32065564      16.20219381      16.20818659      16.22945584      16.27046881      16.15179096      16.15017315      16.16400977      16.18758952      16.17154362      16.26070927      16.30079325      16.19326856      16.24545522      16.32117887
          16.33319277      16.85780902      16.92112672      16.98678194      16.82970045      16.91228637      16.88565288      16.80654938      16.81899202      16.69465295      16.71011776      16.83110346      16.79468659      16.75784681      16.75178106      16.82702492      16.77678142      16.72131041      16.75893199      16.81749979
          16.87009102      16.94969223      16.99717346      16.96923184      16.97704525      17.01092023      16.83657405      16.88397902      16.92725855      15.62932392      15.93580355      15.85175053      16.00458652      17.83780453      17.80626588      25.57106841      25.42795619      25.43359362      25.33505675      25.30542933
          25.24618664      25.41466907      25.64208675      25.59511193      25.65084578      25.61252646      25.48451454      25.17260200      25.30043852      22.03794779      22.06253890      22.12560667      25.17380719      19.41249510      19.28693631      18.86936461      18.54423392      18.32988314      18.69464381      18.29126746
          18.42154662      19.39189281      19.06154735      19.27698530      19.56689811      19.65230272      18.73626863      18.15043046      21.88920267      21.94408793      21.68949628      21.49880685      21.36856072      21.64382106      21.40236547      21.49108083      21.87400545      21.43149397      21.20069603      18.78636382
          19.23945830      18.06482364      22.01254837      21.72381304      21.39788680      21.13449633      17.24908044      17.07335343      17.15545404      16.91834109      17.18523703      17.15300296      17.05434099      17.27236851      17.16803869      16.96288753      17.19940730      16.25224724      16.28411879      16.18940268
          16.23920331      16.25206542      16.28446601      16.29770518      16.15770465      16.15136736      16.15823280      16.20362074      16.18490957      16.27449470      16.31053353      16.21279289      16.33123754      16.85317996      16.89706731      17.02344504      16.81662559      16.70584039      16.83688592      16.80871164
          16.94457159      16.89325021      16.78868663      16.78717832      16.83636250      16.90291255      16.79812780      16.74729279      16.73560814      16.84404362      16.96389480      16.92342825      16.99968825      16.99379324      16.86173805      16.94455957      17.88283100      17.83275514      25.56035017      25.58039017
          25.44932334      25.31997453      25.38711450      25.31132651      25.26221729      25.25447336      22.12494276      19.50465815      19.39757293      18.39977125      18.19063430      18.23127146      18.20497535      18.89931391      19.47030045      21.96302845      21.78501552      21.90255934      21.41243528      21.28731082
          21.38539907      21.32425181      21.94196232      17.97176525      16.95599815      17.01988644      16.88558952      16.96047297      16.90366484      17.10057407      17.03073351      17.12912631      16.19739676      16.18911964      16.22530159      16.27946349      16.25692724      16.29441029      16.30706223      16.84057605
          16.71875182      16.95222411      16.94266209      16.95540155      16.88150694      16.91952617      16.87244750      16.92274181      16.81982898      17.00066949      25.58738122      25.52442167      25.56790398      25.31847912      25.27784248      19.26654638      21.75852109      16.96185997      16.91261741      16.92738076
          16.98863903      16.18387666      16.20210980      16.27650696      16.29473417      16.94700195      25.50819866      16.12997507      16.13281782      16.49928902      15.51198864      16.58156258      16.65886116      16.57553026      15.73402270      15.82963689      16.58889580      17.14520440      15.61955794      15.92382267
          15.86739514      16.00046358      25.47757294      25.18808952      25.37548433      25.69480274      25.62981555      25.65105102      25.47198109      25.08370020      25.26894441      19.55305853      18.96967927      19.83747334      18.63509649      17.98349722      21.74694163      21.91333887      21.32354910      18.83812329
          17.86759730      22.15138557      21.71094234      21.34869932      20.95751813      17.32165109      17.17232339      17.34068425      17.22242907      16.95313971      17.23495827      16.30101302      16.24007071      16.12551720      16.11917715      16.13115916      16.18164196      16.15815383      16.32495620      16.35819150
          16.85982868      17.00039247      16.73955616      16.64732048      16.86343158      16.81654945      16.78396843      16.76443280      16.68042970      16.84489427      17.03757024      16.86656191      16.95878708      17.58602739      25.37891129      25.35170061      22.27444495      18.55430103      18.39184287      18.33832656
          18.77679671      21.89610797      21.50163866      21.46280447      21.37145081      16.94736668      17.11934382      16.28146101      16.78311498      16.92618145      16.85368649      16.92138907      25.56409646      25.30297306      21.68987806      16.99329312      16.92549014      17.02176852      16.19790557      16.22284372
          16.26655865      16.29372758      25.47589133      16.52168939      16.63434612      15.92083894      16.01645313      15.71590684      15.89283798      15.99767204      16.05119034      25.43137530      25.19195289      25.62610057      25.64864054      25.50766362      25.11248108      25.23717268      19.59079767      18.82689488
          19.65775424      17.96930293      21.65836014      21.96273611      17.84803823      22.05436113      21.77569705      21.05037472      17.14355585      17.12303812      17.31822645      17.16834750      16.25551511      16.20172871      16.32618366      16.78016153      16.67883970      16.81752402      16.79572130      16.72036362
          16.82603376      17.02576839      17.69949188      25.35051455      22.21489173      18.49620401      18.56527763      18.91286012      21.46512664      21.55256612      17.07745655      16.28417121      16.79273731      16.87925879      25.53806401      25.33258600      17.04744127      16.99820626      16.21072005      16.25237743
          16.28085647      25.49490252      18.97710249      21.74232935      17.12463763      16.23651875      16.82436824      25.40050039      18.68764230      18.55208964      18.76087857      19.05615286      21.57564239      21.52097250      17.10078747      16.26811494      16.85597529      25.51530585      25.36363126      16.99758487
          17.03927344      16.22329427      16.26433293      16.27963917      17.15849897      16.22215832      15.67720551      15.51198864      16.58889580      25.54122560      19.11036095      21.60262724      18.35095984      21.12790016      20.93510516      17.11257675      16.34371449      16.24334140      16.83153262      17.01077685
          25.71262434      22.19993234      25.07590134      19.92737479      21.04959528      19.37633440      16.25240699      16.28210159      16.19974564      16.70411681      16.99322441      16.93921204      17.03313108      17.49874994      16.92270473      15.80306799      16.58889580      16.58889580      16.58889580      25.24181620
          25.32727105      25.66691291      25.60003666      25.61517567      25.42626545      25.12830806      25.33865346      19.37997819      19.83907306      18.47660730      18.17946820      21.81338832      21.25910392      18.99981763      18.06615160      22.16735883      21.61776879      21.45336649      20.98784105      17.31836801
          17.30120490      17.24656824      17.00359206      17.18691499      16.31246474      16.13097020      16.13015050      16.14831893      16.17133984      16.15280435      16.30802293      16.13476291      16.34890408      16.90227540      16.96637461      16.75738831      16.65672493      16.85049684      16.75241703      16.67182324
          16.87502906      17.02007210      16.89071838      16.93308674      17.70637678      22.21777116      21.72776543      16.81709060      16.97149452      25.44368439      16.51328567      16.63881260      22.12862507      16.78034601      16.69349079      17.09369724      21.83829328      18.61845182      21.53163960      25.50048645
          16.24458518      15.67776787      20.89777543      16.71412031      25.71541889      22.10280133      25.00214918      25.13590943      19.90790808      19.88331097      16.19890502      16.61963749      17.07634147      17.33534166      17.42461337      16.89215803      15.91682082      16.58889580      25.17747689      25.72768685
          25.63873453      25.58454157      25.58576241      25.40580895      25.09509262      19.54346228      19.26339857      20.16761866      19.91971191      18.33563974      21.84965197      21.71764798      21.09778265      21.14617459      19.08530866      19.18813641      17.84773240      18.18428551      22.33768059      21.59145679
          20.94218333      17.38123297      17.37717636      16.99755225      17.22454518      17.15305155      16.33375474      16.32936559      16.09253425      16.11970824      16.12430612      16.13087193      16.31755500      16.29690830      16.35519904      16.93420438      16.71341695      16.71014687      16.72547605      16.58678616
          16.87951962      16.90631072      17.06403649      17.01872596      16.89934464      17.61913468      22.38826469      22.22448019      16.81924973      17.01031389      25.40227967      16.54823157      16.70696090      21.87407602      16.79205350      17.04968335      25.47657070      16.58889580      25.27418471      25.68334582
          25.60172515      25.65462170      25.52725295      25.30843289      25.03592920      25.13055803      19.30635115      20.14617328      17.99974043      21.69647077      21.00134423      19.32483301      18.10151871      22.37940547      21.40568554      20.72914472      20.81051449      17.39252139      17.37354084      17.31575027
          17.07100863      17.16174709      16.34965997      16.09234471      16.14458322      16.29868511      16.35229580      16.86166438      16.73748046      16.67656743      16.68800295      16.60387266      16.92240888      17.04564666      16.94740347      17.76906151      17.39695392      22.32801643      16.75786864      17.05679867
          25.42990661      17.01691479      25.49206534      16.58889580      25.66982070      22.27673212      16.37406032      16.58889580      15.51198864      18.10050392      18.11705780      15.60947519      15.86276734      16.88734159      18.83038576      16.24417131      16.09546121      25.47685718      25.12441897      17.40598588
          16.78626074      16.63420982      17.78752840      16.72658887      18.10050392      18.10050392      25.56975737      25.02087709      17.46436385      17.40718386      16.65790327      18.10050392      15.51198864      16.23801428      16.25420312      15.92370106      16.00232867      16.51610969      16.64601530      15.62725172
          15.86858310      16.51078331      16.48214674      16.46803777      16.58889580      25.47607410      18.96107567      20.20069339      21.38591336      20.75915745      19.72068887      18.45366699      20.74058191      17.07387567      16.38741229      16.30150353      16.26348071      16.63707594      16.99616379      17.10860804
          17.03317274      22.27794309      16.58889580      16.64911676      16.37430003      17.86941910      16.58889580      16.68404961      16.00739547      16.09702917      18.10050392      25.43763323      25.04678250      17.51016310      17.58274875      16.24050408      16.25457762      15.92000409      15.85700936      16.07805496
          15.83353853      15.93432455      16.63394886      16.72569155      25.66384765      19.64244330      20.60118295      21.77031003      19.39239885      17.60096730      17.22327090      16.37292634      16.63897021      16.91542215      22.54175066      16.40926256      16.36728427      17.86941910      16.58889580      16.68404961
          15.99159248      17.86941910      16.68404961      26.44783974      16.54863415      16.08329295      16.20385750      16.14990008      15.78911936      15.75333579      16.16834206      16.22571381      16.38407295      16.26163428      15.99548143      16.07120607      20.48859865      17.39086780      17.15630009      18.10050392
          15.51198864      16.58575466      16.52296810      16.76906566      15.80756602      15.86395610      16.57514855      16.38470924      16.88936424      16.58889580      15.69667881      15.98160008      15.98073197      16.01766326      16.71867592      16.38422385      16.09564286      17.15716581      26.44783974      16.21377136
          15.68507827      16.11261655      16.14254616      16.18881012      16.65196462      16.42114701      16.90812815      26.44783974      16.11086781      15.51198864      15.72065473      18.38323975      15.68368513      15.81774887      25.82184626      16.82686790      16.29431522      16.06622221      16.15192685      16.83185458
          21.05194445      16.14337685      16.09150912      16.83178266      16.46327271      16.93269864      16.49656180      18.10050392      25.33167615      25.15798940      17.44768427      17.99581297      20.57240398      20.43371234      22.27954694      17.86941910      16.68404961      17.31271998      15.51198864      15.83171378
          16.17201876      16.76463949      16.01078345      15.89386431      16.74978084      15.97464703      16.25806685      15.95899187      16.16958089      15.66825018      16.29452488      17.07807133      26.44783974      26.49538422      15.67079269      18.38323975      15.93898161      16.07753902      21.43291216      16.06075865
          16.78213957      18.06398964      18.08739247      17.40707576      15.91157858      16.57220513      26.49538422      16.04694799      18.06398964      21.01262793      16.20996433      17.08202493      17.14146271      25.74933913      18.88750027      16.97227081      16.69958969      16.80705421      22.66488664      15.92461411
          15.78973730      16.13248540      16.08241768      16.66745121      16.71942017      16.58561467      16.89054008      16.77202311      16.43853256      25.12040138      25.31163887      17.38677362      18.49041132      17.49860640      20.06819753      20.46389290      22.04745363      15.68735925      16.67409788      16.67114559
          16.19968882      26.49538422      25.77794874      22.62467541      16.48290662      25.33837641      24.98496463      17.61802386      15.90231057      16.95115025      17.14798359      16.25684625      15.99167846      24.76757461      22.25177343      25.83963389      16.50055648      16.43736454      16.23796882      16.53885951
          16.50508289      16.47668855      16.37765089      16.26057360      15.98337052      15.98517090      16.18376761      16.44026497      16.28076187      16.10682342      20.30374270      17.56157877      16.57338858      15.72649399      16.31747995      16.42851234      16.32755069      16.21162067      25.82031736      16.69622836
          16.23397132      20.82828907      16.04041569      16.14075854      16.34866132      16.55422189      17.53117051      17.86941910      16.68404961      16.52968956      16.11995963      26.43473826      21.81639433      16.72732170      16.75765406      21.10183249      16.15520256      18.15155150      16.69319224      16.17846158