# File generated by Flopy version 3.3.6 on 10/15/2022 at 07:03:54.
BEGIN options
  BOUNDNAMES
  PRINT_STAGE
  PRINT_FLOWS
  OBS6  FILEIN  project.sfr.obs
  UNIT_CONVERSION   86400.00000000
END options

BEGIN dimensions
  NREACHES  168
END dimensions

BEGIN packagedata
  1  3 368      50.64903770       5.01019564  1.61039797E-04      16.49592174       0.50203913       3.50000000  0.035  1       1.00000000  0  upstream
  2  3 369      94.01139569       5.03931575  1.61039797E-04      16.48427370       0.50786315       3.50000000  0.035  2       1.00000000  0  upstream
  3  3 370     116.98441041       5.08178915  1.61039797E-04      16.46728434       0.51635783       3.50000000  0.035  2       1.00000000  0  upstream
  4  3 371     130.34665378       5.13157683  1.61039797E-04      16.44736927       0.52631537       3.50000000  0.035  2       1.00000000  0  upstream
  5  3 372     121.58405277       5.18229042  1.61039797E-04      16.42708383       0.53645808       3.50000000  0.035  2       1.00000000  0  upstream
  6  3 373     115.80784961       5.23007735  1.61039797E-04      16.40796906       0.54601547       3.50000000  0.035  2       1.00000000  0  upstream
  7  3 374     123.53808241       5.27825762  1.61039797E-04      16.38869695       0.55565152       3.50000000  0.035  2       1.00000000  0  upstream
  8  3 375      14.74533401       5.30609404  1.61039797E-04      16.37756238       0.56121881       3.50000000  0.035  2       1.00000000  0  upstream
  9  3 376      13.21385014       5.31172222  1.61039797E-04      16.37531111       0.56234444       3.50000000  0.035  2       1.00000000  0  upstream
  10  3 377      94.44678014       5.33339427  1.61039797E-04      16.36664229       0.56667885       3.50000000  0.035  2       1.00000000  0  upstream
  11  3 378     127.94040510       5.37816076  1.61039797E-04      16.34873570       0.57563215       3.50000000  0.035  2       1.00000000  0  upstream
  12  3 379      89.36916781       5.42190512  1.61039797E-04      16.33123795       0.58438102       3.50000000  0.035  2       1.00000000  0  upstream
  13  3 380      73.53702474       5.45469809  1.61039797E-04      16.31812076       0.59093962       3.50000000  0.035  2       1.00000000  0  upstream
  14  3 381      97.50228379       5.48912826  1.61039797E-04      16.30434869       0.59782565       3.50000000  0.035  2       1.00000000  0  upstream
  15  3 382     142.75244300       5.53749148  1.61039797E-04      16.28500341       0.60749830       3.50000000  0.035  2       1.00000000  0  upstream
  16  3 383     139.19186992       5.59424680  1.61039797E-04      16.26230128       0.61884936       3.50000000  0.035  2       1.00000000  0  upstream
  17  3 384     133.24724451       5.64908872  1.61039797E-04      16.24036451       0.62981774       3.50000000  0.035  2       1.00000000  0  upstream
  18  3 385     167.11078121       5.70955072  1.61039797E-04      16.21617971       0.64191014       3.50000000  0.035  2       1.00000000  0  upstream
  19  3 386     163.94834720       5.77619284  1.61039797E-04      16.18952287       0.65523857       3.50000000  0.035  2       1.00000000  0  upstream
  20  3 387     156.01152170       5.84060068  1.61039797E-04      16.16375973       0.66812014       3.50000000  0.035  2       1.00000000  0  upstream
  21  3 388     101.39523194       5.89241659  1.61039797E-04      16.14303336       0.67848332       3.50000000  0.035  2       1.00000000  0  upstream
  22  3 389     136.27665083       5.94025988  1.61039797E-04      16.12389605       0.68805198       3.50000000  0.035  2       1.00000000  0  upstream
  23  3 390     164.47193212       6.00080049  1.61039797E-04      16.09967980       0.70016010       3.50000000  0.035  2       1.00000000  0  upstream
  24  3 391     116.48252379       6.05735655  1.61039797E-04      16.07705738       0.71147131       3.50000000  0.035  2       1.00000000  0  upstream
  25  3 392     112.47167638       6.10344498  1.61039797E-04      16.05862201       0.72068900       3.50000000  0.035  2       1.00000000  0  upstream
  26  3 393     148.49375285       6.15597725  1.61039797E-04      16.03760910       0.73119545       3.50000000  0.035  2       1.00000000  0  upstream
  27  3 394     166.86427792       6.21945874  1.61039797E-04      16.01221650       0.74389175       3.50000000  0.035  2       1.00000000  0  upstream
  28  3 395     117.04770471       6.27661015  1.61039797E-04      15.98935594       0.75532203       3.50000000  0.035  2       1.00000000  0  upstream
  29  3 396      47.29872232       6.30969305  1.61039797E-04      15.97612278       0.76193861       3.50000000  0.035  2       1.00000000  0  upstream
  30  3 397      41.96150598       6.32766111  1.61039797E-04      15.96893556       0.76553222       3.50000000  0.035  2       1.00000000  0  upstream
  31  3 398     138.89983806       6.36406845  1.61039797E-04      15.95437262       0.77281369       3.50000000  0.035  2       1.00000000  0  upstream
  32  3 399     164.24952238       6.42509234  1.61039797E-04      15.92996306       0.78501847       3.50000000  0.035  2       1.00000000  0  upstream
  33  3 400      83.36899613       6.47493789  1.61039797E-04      15.91002485       0.79498758       3.50000000  0.035  2       1.00000000  0  upstream
  34  3 401      71.13006542       6.50603851  1.61039797E-04      15.89758460       0.80120770       3.50000000  0.035  2       1.00000000  0  upstream
  35  3 402     125.56467579       6.54563311  1.61039797E-04      15.88174676       0.80912662       3.50000000  0.035  2       1.00000000  0  upstream
  36  3 403     117.15319234       6.59449215  1.61039797E-04      15.86220314       0.81889843       3.50000000  0.035  2       1.00000000  0  upstream
  37  3 404     117.10373574       6.64164801  1.61039797E-04      15.84334079       0.82832960       3.50000000  0.035  2       1.00000000  0  upstream
  38  3 405      55.54724974       6.67640261  1.61039797E-04      15.82943895       0.83528052       3.50000000  0.035  2       1.00000000  0  upstream
  39  3 406      39.14855727       6.69546486  1.61039797E-04      15.82181406       0.83909297       3.50000000  0.035  2       1.00000000  0  upstream
  40  3 407      57.18224658       6.71485622  1.61039797E-04      15.81405751       0.84297124       3.50000000  0.035  2       1.00000000  0  upstream
  41  3 408      55.25384173       6.73748958  1.61039797E-04      15.80500417       0.84749792       3.50000000  0.035  2       1.00000000  0  upstream
  42  3 409      98.88099744       6.76851688  1.61039797E-04      15.79259325       0.85370338       3.50000000  0.035  2       1.00000000  0  upstream
  43  3 410     131.69252413       6.81493127  1.61039797E-04      15.77402749       0.86298625       3.50000000  0.035  2       1.00000000  0  upstream
  44  3 411     171.57179795       6.87597831  1.61039797E-04      15.74960868       0.87519566       3.50000000  0.035  2       1.00000000  0  upstream
  45  3 412      95.60650447       6.92976123  1.61039797E-04      15.72809551       0.88595225       3.50000000  0.035  2       1.00000000  0  upstream
  46  3 413      72.23033380       6.96354674  1.61039797E-04      15.71458130       0.89270935       3.50000000  0.035  2       1.00000000  0  upstream
  47  3 414      88.57754347       6.99591733  1.61039797E-04      15.70163307       0.89918347       3.50000000  0.035  2       1.00000000  0  upstream
  48  3 415      94.22112175       7.03271465  1.61039797E-04      15.68691414       0.90654293       3.50000000  0.035  2       1.00000000  0  downstream
  49  3 416      81.99861071       7.06818764  1.61039797E-04      15.67272494       0.91363753       3.50000000  0.035  2       1.00000000  0  downstream
  50  3 417      87.48911955       7.10230548  1.61039797E-04      15.65907781       0.92046110       3.50000000  0.035  2       1.00000000  0  downstream
  51  3 418     103.11870856       7.14067478  1.61039797E-04      15.64373009       0.92813496       3.50000000  0.035  2       1.00000000  0  downstream
  52  3 419     148.36886777       7.19129917  1.61039797E-04      15.62348033       0.93825983       3.50000000  0.035  2       1.00000000  0  downstream
  53  3 420     171.00977199       7.25559001  1.61039797E-04      15.59776400       0.95111800       3.50000000  0.035  2       1.00000000  0  downstream
  54  3 421     141.97085321       7.31859293  1.61039797E-04      15.57256283       0.96371859       3.50000000  0.035  2       1.00000000  0  downstream
  55  3 422      90.05560640       7.36529980  1.61039797E-04      15.55388008       0.97305996       3.50000000  0.035  2       1.00000000  0  downstream
  56  3 423      83.55213432       7.40024699  1.61039797E-04      15.53990120       0.98004940       3.50000000  0.035  2       1.00000000  0  downstream
  57  3 424      98.29392539       7.43685256  1.61039797E-04      15.52525898       0.98737051       3.50000000  0.035  2       1.00000000  0  downstream
  58  3 425     112.66792602       7.47931912  1.61039797E-04      15.50827235       0.99586382       3.50000000  0.035  2       1.00000000  0  downstream
  59  3 426     174.48997981       7.53712394  1.61039797E-04      15.48515042       1.00742479       3.50000000  0.035  2       1.00000000  0  downstream
  60  3 427     130.85346545       7.59858950  1.61039797E-04      15.46056420       1.01971790       3.50000000  0.035  2       1.00000000  0  downstream
  61  3 428     126.08803599       7.65031176  1.61039797E-04      15.43987530       1.03006235       3.50000000  0.035  2       1.00000000  0  downstream
  62  3 429     145.76639830       7.70503598  1.61039797E-04      15.41798561       1.04100720       3.50000000  0.035  2       1.00000000  0  downstream
  63  3 430      12.97454009       7.73699049  1.61039797E-04      15.40520380       1.04739810       3.50000000  0.035  2       1.00000000  0  downstream
  64  3 431      12.37323504       7.74209300  1.61039797E-04      15.40316280       1.04841860       3.50000000  0.035  2       1.00000000  0  downstream
  65  3 432     104.40730413       7.76560089  1.61039797E-04      15.39375964       1.05312018       3.50000000  0.035  2       1.00000000  0  downstream
  66  3 433     142.88860292       7.81538149  1.61039797E-04      15.37384740       1.06307630       3.50000000  0.035  2       1.00000000  0  downstream
  67  3 434     134.07845843       7.87113489  1.61039797E-04      15.35154604       1.07422698       3.50000000  0.035  2       1.00000000  0  downstream
  68  3 435     130.25833664       7.92434582  1.61039797E-04      15.33026167       1.08486916       3.50000000  0.035  2       1.00000000  0  downstream
  69  3 436     176.30412693       7.98605677  1.61039797E-04      15.30557729       1.09721135       3.50000000  0.035  2       1.00000000  0  downstream
  70  3 437     173.20863782       8.05641360  1.61039797E-04      15.27743456       1.11128272       3.50000000  0.035  2       1.00000000  0  downstream
  71  3 438     151.62619254       8.12180277  1.61039797E-04      15.25127889       1.12436055       3.50000000  0.035  2       1.00000000  0  downstream
  72  3 439     143.06243694       8.18112351  1.61039797E-04      15.22755059       1.13622470       3.50000000  0.035  2       1.00000000  0  downstream
  73  3 440     168.15067040       8.24377063  1.61039797E-04      15.20249175       1.14875413       3.50000000  0.035  2       1.00000000  0  downstream
  74  3 441     155.45078894       8.30891152  1.61039797E-04      15.17643539       1.16178230       3.50000000  0.035  2       1.00000000  0  downstream
  75  3 442     155.45078894       8.37149593  1.61039797E-04      15.15140163       1.17429919       3.50000000  0.035  2       1.00000000  0  downstream
  76  3 443     136.28351282       8.43022197  1.61039797E-04      15.12791121       1.18604439       3.50000000  0.035  2       1.00000000  0  downstream
  77  3 444      35.53654725       8.46480931  1.61039797E-04      15.11407628       1.19296186       3.50000000  0.035  2       1.00000000  0  downstream
  78  3 445      32.44770677       8.47849452  1.61039797E-04      15.10860219       1.19569890       3.50000000  0.035  2       1.00000000  0  downstream
  79  3 446      28.69736025       8.49080301  1.61039797E-04      15.10367880       1.19816060       3.50000000  0.035  2       1.00000000  0  downstream
  80  3 447      27.13580465       8.50204221  1.61039797E-04      15.09918312       1.20040844       3.50000000  0.035  2       1.00000000  0  downstream
  81  3 448     109.80790141       8.52960894  1.61039797E-04      15.08815642       1.20592179       3.50000000  0.035  2       1.00000000  0  downstream
  82  3 449     154.85593477       8.58288571  1.61039797E-04      15.06684572       1.21657714       3.50000000  0.035  2       1.00000000  0  downstream
  83  3 450     177.42796739       8.64977437  1.61039797E-04      15.04009025       1.22995487       3.50000000  0.035  2       1.00000000  0  downstream
  84  3 451     141.53577056       8.71398169  1.61039797E-04      15.01440732       1.24279634       3.50000000  0.035  2       1.00000000  0  downstream
  85  3 452      95.61380873       8.76171984  1.61039797E-04      14.99531206       1.25234397       3.50000000  0.035  2       1.00000000  0  downstream
  86  3 453     135.32417270       8.80820760  1.61039797E-04      14.97671696       1.26164152       3.50000000  0.035  2       1.00000000  0  downstream
  87  3 454     136.11959226       8.86284916  1.61039797E-04      14.95486034       1.27256983       3.50000000  0.035  2       1.00000000  0  downstream
  88  3 455      12.97454009       8.89286177  1.61039797E-04      14.94285529       1.27857235       3.50000000  0.035  2       1.00000000  0  downstream
  89  3 456      12.97454009       8.89808531  1.61039797E-04      14.94076587       1.27961706       3.50000000  0.035  2       1.00000000  0  downstream
  90  3 457      52.34841167       8.91123481  1.61039797E-04      14.93550608       1.28224696       3.50000000  0.035  2       1.00000000  0  downstream
  91  3 458      74.50477051       8.93677032  1.61039797E-04      14.92529187       1.28735406       3.50000000  0.035  2       1.00000000  0  downstream
  92  3 459      63.76341407       8.96460367  1.61039797E-04      14.91415853       1.29292073       3.50000000  0.035  2       1.00000000  0  downstream
  93  3 460      66.06960985       8.99073903  1.61039797E-04      14.90370439       1.29814781       3.50000000  0.035  2       1.00000000  0  downstream
  94  3 461      54.03532486       9.01491612  1.61039797E-04      14.89403355       1.30298322       3.50000000  0.035  2       1.00000000  0  downstream
  95  3 501       0.18285356       9.02583022  1.61039797E-04      14.88966791       1.30516604       3.50000000  0.035  2       1.00000000  0  downstream
  96  3 502       0.08000927       9.02588314  1.61039797E-04      14.88964674       1.30517663       3.50000000  0.035  2       1.00000000  0  downstream
  97  3 505       0.21050750       9.02594162  1.61039797E-04      14.88962335       1.30518832       3.50000000  0.035  2       1.00000000  0  downstream
  98  3 511       0.00305132       9.02598461  1.61039797E-04      14.88960616       1.30519692       3.50000000  0.035  2       1.00000000  0  downstream
  99  3 516       0.16172465       9.02601778  1.61039797E-04      14.88959289       1.30520356       3.50000000  0.035  2       1.00000000  0  downstream
  100  3 517       0.36020119       9.02612284  1.61039797E-04      14.88955086       1.30522457       3.50000000  0.035  2       1.00000000  0  downstream
  101  3 521       0.09946885       9.02621537  1.61039797E-04      14.88951385       1.30524307       3.50000000  0.035  2       1.00000000  0  downstream
  102  3 523       0.60470107       9.02635712  1.61039797E-04      14.88945715       1.30527142       3.50000000  0.035  2       1.00000000  0  downstream
  103  3 534       0.60273773       9.02660018  1.61039797E-04      14.88935993       1.30532004       3.50000000  0.035  2       1.00000000  0  downstream
  104  3 538       1.16334034       9.02695569  1.61039797E-04      14.88921772       1.30539114       3.50000000  0.035  2       1.00000000  0  downstream
  105  3 540       1.14973972       9.02742131  1.61039797E-04      14.88903147       1.30548426       3.50000000  0.035  2       1.00000000  0  downstream
  106  3 543       0.17841787       9.02768867  1.61039797E-04      14.88892453       1.30553773       3.50000000  0.035  2       1.00000000  0  downstream
  107  3 550       0.33797633       9.02779262  1.61039797E-04      14.88888295       1.30555852       3.50000000  0.035  2       1.00000000  0  downstream
  108  3 563       2.30509061       9.02832467  1.61039797E-04      14.88867013       1.30566493       3.50000000  0.035  2       1.00000000  0  downstream
  109  3 565       1.36296728       9.02906305  1.61039797E-04      14.88837478       1.30581261       3.50000000  0.035  2       1.00000000  0  downstream
  110  3 573       3.79703288       9.03010176  1.61039797E-04      14.88795930       1.30602035       3.50000000  0.035  2       1.00000000  0  downstream
  111  3 579       4.72236773       9.03181671  1.61039797E-04      14.88727332       1.30636334       3.50000000  0.035  2       1.00000000  0  downstream
  112  3 580       0.79462089       9.03292728  1.61039797E-04      14.88682909       1.30658546       3.50000000  0.035  2       1.00000000  0  downstream
  113  3 581       1.52586875       9.03339439  1.61039797E-04      14.88664224       1.30667888       3.50000000  0.035  2       1.00000000  0  downstream
  114  3 586       5.95766727       9.03490083  1.61039797E-04      14.88603967       1.30698017       3.50000000  0.035  2       1.00000000  0  downstream
  115  3 607      11.40461665       9.03839585  1.61039797E-04      14.88464166       1.30767917       3.50000000  0.035  2       1.00000000  0  downstream
  116  3 617      15.78157366       9.04386842  1.61039797E-04      14.88245263       1.30877368       3.50000000  0.035  2       1.00000000  0  downstream
  117  3 635      15.98840404       9.05026371  1.61039797E-04      14.87989452       1.31005274       3.50000000  0.035  2       1.00000000  0  downstream
  118  3 636      19.78169031       9.05746422  1.61039797E-04      14.87701431       1.31149284       3.50000000  0.035  2       1.00000000  0  downstream
  119  3 637      21.54999553       9.06578428  1.61039797E-04      14.87368629       1.31315686       3.50000000  0.035  2       1.00000000  0  downstream
  120  3 638      19.78169031       9.07410434  1.61039797E-04      14.87035827       1.31482087       3.50000000  0.035  2       1.00000000  0  downstream
  121  3 640      30.39331636       9.08420455  1.61039797E-04      14.86631818       1.31684091       3.50000000  0.035  2       1.00000000  0  downstream
  122  3 642      22.12700878       9.09477688  1.61039797E-04      14.86208925       1.31895538       3.50000000  0.035  2       1.00000000  0  downstream
  123  3 644      24.54535452       9.10417202  1.61039797E-04      14.85833119       1.32083440       3.50000000  0.035  2       1.00000000  0  downstream
  124  3 650      22.48153916       9.11363852  1.61039797E-04      14.85454459       1.32272770       3.50000000  0.035  2       1.00000000  0  downstream
  125  3 719      28.31449517       9.12386375  1.61039797E-04      14.85045450       1.32477275       3.50000000  0.035  2       1.00000000  0  downstream
  126  3 721      53.20860262       9.14027433  1.61039797E-04      14.84389027       1.32805487       3.50000000  0.035  2       1.00000000  0  downstream
  127  3 722      48.16627382       9.16068106  1.61039797E-04      14.83572758       1.33213621       3.50000000  0.035  2       1.00000000  0  downstream
  128  3 724      53.20860262       9.18108780  1.61039797E-04      14.82756488       1.33621756       3.50000000  0.035  2       1.00000000  0  downstream
  129  3 1028      26.84486413       9.19720254  1.61039797E-04      14.82111898       1.33944051       3.50000000  0.035  2       1.00000000  0  downstream
  130  3 1032      18.84442154       9.20639978  1.61039797E-04      14.81744009       1.34127996       3.50000000  0.035  2       1.00000000  0  downstream
  131  3 1034      60.47063038       9.22236588  1.61039797E-04      14.81105365       1.34447318       3.50000000  0.035  2       1.00000000  0  downstream
  132  3 1037      32.68069233       9.24111722  1.61039797E-04      14.80355311       1.34822344       3.50000000  0.035  2       1.00000000  0  downstream
  133  3 1126      42.00981081       9.25615240  1.61039797E-04      14.79753904       1.35123048       3.50000000  0.035  2       1.00000000  0  downstream
  134  3 1127      36.51362998       9.27195915  1.61039797E-04      14.79121634       1.35439183       3.50000000  0.035  2       1.00000000  0  downstream
  135  3 1207      47.41975716       9.28885492  1.61039797E-04      14.78445803       1.35777098       3.50000000  0.035  2       1.00000000  0  downstream
  136  3 1239       9.30722923       9.30027405  1.61039797E-04      14.77989038       1.36005481       3.50000000  0.035  2       1.00000000  0  downstream
  137  3 1317      49.92718567       9.31219792  1.61039797E-04      14.77512083       1.36243958       3.50000000  0.035  2       1.00000000  0  downstream
  138  3 1378       0.61870378       9.32237279  1.61039797E-04      14.77105088       1.36447456       3.50000000  0.035  2       1.00000000  0  downstream
  139  3 1454      69.65660813       9.33651920  1.61039797E-04      14.76539232       1.36730384       3.50000000  0.035  2       1.00000000  0  downstream
  140  3 1455      43.19641352       9.35923648  1.61039797E-04      14.75630541       1.37184730       3.50000000  0.035  2       1.00000000  0  downstream
  141  3 1458      25.98837014       9.37316336  1.61039797E-04      14.75073466       1.37463267       3.50000000  0.035  2       1.00000000  0  downstream
  142  3 1460      61.76757246       9.39082861  1.61039797E-04      14.74366856       1.37816572       3.50000000  0.035  2       1.00000000  0  downstream
  143  3 1461      15.44189311       9.40637086  1.61039797E-04      14.73745166       1.38127417       3.50000000  0.035  2       1.00000000  0  downstream
  144  3 1465      35.24113875       9.41657334  1.61039797E-04      14.73337067       1.38331467       3.50000000  0.035  2       1.00000000  0  downstream
  145  3 1498      70.96498944       9.43795260  1.61039797E-04      14.72481896       1.38759052       3.50000000  0.035  2       1.00000000  0  downstream
  146  3 1502      46.32567934       9.46156319  1.61039797E-04      14.71537473       1.39231264       3.50000000  0.035  2       1.00000000  0  downstream
  147  3 1503      54.78133782       9.48191600  1.61039797E-04      14.70723360       1.39638320       3.50000000  0.035  2       1.00000000  0  downstream
  148  3 1504      41.76058433       9.50134987  1.61039797E-04      14.69946005       1.40026997       3.50000000  0.035  2       1.00000000  0  downstream
  149  3 1530      59.09408822       9.52165189  1.61039797E-04      14.69133925       1.40433038       3.50000000  0.035  2       1.00000000  0  downstream
  150  3 1531      54.37790916       9.54449377  1.61039797E-04      14.68220249       1.40889875       3.50000000  0.035  2       1.00000000  0  downstream
  151  3 1532      79.66259609       9.57147609  1.61039797E-04      14.67140956       1.41429522       3.50000000  0.035  2       1.00000000  0  downstream
  152  3 1535      65.31513532       9.60066007  1.61039797E-04      14.65973597       1.42013201       3.50000000  0.035  2       1.00000000  0  downstream
  153  3 1543      72.41433956       9.62838498  1.61039797E-04      14.64864601       1.42567700       3.50000000  0.035  2       1.00000000  0  downstream
  154  3 1560      82.10447453       9.65948958  1.61039797E-04      14.63620417       1.43189792       3.50000000  0.035  2       1.00000000  0  downstream
  155  3 1569      45.08750633       9.68509329  1.61039797E-04      14.62596268       1.43701866       3.50000000  0.035  2       1.00000000  0  downstream
  156  3 1573      83.49486658       9.71097689  1.61039797E-04      14.61560924       1.44219538       3.50000000  0.035  2       1.00000000  0  downstream
  157  3 1680      37.86413460       9.73540643  1.61039797E-04      14.60583743       1.44708129       3.50000000  0.035  2       1.00000000  0  downstream
  158  3 1681      20.97189768       9.74725010  1.61039797E-04      14.60109996       1.44945002       3.50000000  0.035  2       1.00000000  0  downstream
  159  3 1684      80.78845081       9.76773444  1.61039797E-04      14.59290623       1.45354689       3.50000000  0.035  2       1.00000000  0  downstream
  160  3 1685      71.08478170       9.79830648  1.61039797E-04      14.58067741       1.45966130       3.50000000  0.035  2       1.00000000  0  downstream
  161  3 1686      58.07783755       9.82430688  1.61039797E-04      14.57027725       1.46486138       3.50000000  0.035  2       1.00000000  0  downstream
  162  3 1694      75.42343587       9.85118066  1.61039797E-04      14.55952774       1.47023613       3.50000000  0.035  2       1.00000000  0  downstream
  163  3 1762      51.83754356       9.87679826  1.61039797E-04      14.54928070       1.47535965       3.50000000  0.035  2       1.00000000  0  downstream
  164  3 1764      98.58988491       9.90707926  1.61039797E-04      14.53716830       1.48141585       3.50000000  0.035  2       1.00000000  0  downstream
  165  3 1774      69.06126720       9.94082740  1.61039797E-04      14.52366904       1.48816548       3.50000000  0.035  2       1.00000000  0  downstream
  166  3 1839      94.39203222       9.97373050  1.61039797E-04      14.51050780       1.49474610       3.50000000  0.035  2       1.00000000  0  downstream
  167  3 1883       9.37042477       9.99461786  1.61039797E-04      14.50215286       1.49892357       3.50000000  0.035  2       1.00000000  0  downstream
  168  3 1945       8.68325992       9.99825206  1.61039797E-04      14.50069918       1.49965041       3.50000000  0.035  1       1.00000000  0  downstream
END packagedata

BEGIN connectiondata
  1  -2
  2  1  -3
  3  2  -4
  4  3  -5
  5  4  -6
  6  5  -7
  7  6  -8
  8  7  -9
  9  8  -10
  10  9  -11
  11  10  -12
  12  11  -13
  13  12  -14
  14  13  -15
  15  14  -16
  16  15  -17
  17  16  -18
  18  17  -19
  19  18  -20
  20  19  -21
  21  20  -22
  22  21  -23
  23  22  -24
  24  23  -25
  25  24  -26
  26  25  -27
  27  26  -28
  28  27  -29
  29  28  -30
  30  29  -31
  31  30  -32
  32  31  -33
  33  32  -34
  34  33  -35
  35  34  -36
  36  35  -37
  37  36  -38
  38  37  -39
  39  38  -40
  40  39  -41
  41  40  -42
  42  41  -43
  43  42  -44
  44  43  -45
  45  44  -46
  46  45  -47
  47  46  -48
  48  47  -49
  49  48  -50
  50  49  -51
  51  50  -52
  52  51  -53
  53  52  -54
  54  53  -55
  55  54  -56
  56  55  -57
  57  56  -58
  58  57  -59
  59  58  -60
  60  59  -61
  61  60  -62
  62  61  -63
  63  62  -64
  64  63  -65
  65  64  -66
  66  65  -67
  67  66  -68
  68  67  -69
  69  68  -70
  70  69  -71
  71  70  -72
  72  71  -73
  73  72  -74
  74  73  -75
  75  74  -76
  76  75  -77
  77  76  -78
  78  77  -79
  79  78  -80
  80  79  -81
  81  80  -82
  82  81  -83
  83  82  -84
  84  83  -85
  85  84  -86
  86  85  -87
  87  86  -88
  88  87  -89
  89  88  -90
  90  89  -91
  91  90  -92
  92  91  -93
  93  92  -94
  94  93  -95
  95  94  -96
  96  95  -97
  97  96  -98
  98  97  -99
  99  98  -100
  100  99  -101
  101  100  -102
  102  101  -103
  103  102  -104
  104  103  -105
  105  104  -106
  106  105  -107
  107  106  -108
  108  107  -109
  109  108  -110
  110  109  -111
  111  110  -112
  112  111  -113
  113  112  -114
  114  113  -115
  115  114  -116
  116  115  -117
  117  116  -118
  118  117  -119
  119  118  -120
  120  119  -121
  121  120  -122
  122  121  -123
  123  122  -124
  124  123  -125
  125  124  -126
  126  125  -127
  127  126  -128
  128  127  -129
  129  128  -130
  130  129  -131
  131  130  -132
  132  131  -133
  133  132  -134
  134  133  -135
  135  134  -136
  136  135  -137
  137  136  -138
  138  137  -139
  139  138  -140
  140  139  -141
  141  140  -142
  142  141  -143
  143  142  -144
  144  143  -145
  145  144  -146
  146  145  -147
  147  146  -148
  148  147  -149
  149  148  -150
  150  149  -151
  151  150  -152
  152  151  -153
  153  152  -154
  154  153  -155
  155  154  -156
  156  155  -157
  157  156  -158
  158  157  -159
  159  158  -160
  160  159  -161
  161  160  -162
  162  161  -163
  163  162  -164
  164  163  -165
  165  164  -166
  166  165  -167
  167  166  -168
  168  167
END connectiondata

BEGIN period  1
  1  inflow  864000.0
END period  1

