# File generated by Flopy version 3.3.6 on 10/15/2022 at 07:03:54.
BEGIN options
  PRINT_INPUT
END options

BEGIN continuous  FILEOUT  sfr_obs.csv
  UPSTREAM  SFR  UPSTREAM
  DOWNSTREAM  SFR  DOWNSTREAM
  GAGE1  downstream-flow  47
  GAGE2  ext-outflow  168
END continuous  FILEOUT  sfr_obs.csv

