# File generated by Flopy version 3.3.6 on 10/15/2022 at 07:03:54.
BEGIN options
END options

BEGIN dimensions
  MAXBOUND  140
END dimensions

BEGIN period  1
  1 39      15.50000000
  2 39      15.50000000
  3 39      15.50000000
  1 40      15.50000000
  2 40      15.50000000
  3 40      15.50000000
  1 41      15.50000000
  2 41      15.50000000
  3 41      15.50000000
  1 42      15.50000000
  2 42      15.50000000
  3 42      15.50000000
  1 43      15.50000000
  2 43      15.50000000
  3 43      15.50000000
  1 44      15.50000000
  2 44      15.50000000
  3 44      15.50000000
  1 45      15.50000000
  2 45      15.50000000
  3 45      15.50000000
  2 46      15.50000000
  3 46      15.50000000
  2 47      15.50000000
  3 47      15.50000000
  2 48      15.50000000
  3 48      15.50000000
  2 49      15.50000000
  3 49      15.50000000
  1 462      15.50000000
  2 462      15.50000000
  3 462      15.50000000
  1 463      15.50000000
  2 463      15.50000000
  3 463      15.50000000
  1 465      15.50000000
  2 465      15.50000000
  3 465      15.50000000
  1 467      15.50000000
  2 467      15.50000000
  3 467      15.50000000
  1 469      15.50000000
  2 469      15.50000000
  3 469      15.50000000
  1 471      15.50000000
  2 471      15.50000000
  3 471      15.50000000
  1 473      15.50000000
  2 473      15.50000000
  3 473      15.50000000
  1 475      15.50000000
  2 475      15.50000000
  3 475      15.50000000
  1 477      15.50000000
  2 477      15.50000000
  3 477      15.50000000
  1 498      15.50000000
  2 498      15.50000000
  3 498      15.50000000
  1 499      15.50000000
  2 499      15.50000000
  3 499      15.50000000
  1 502      15.50000000
  2 502      15.50000000
  3 502      15.50000000
  1 505      15.50000000
  2 505      15.50000000
  3 505      15.50000000
  1 510      15.50000000
  2 510      15.50000000
  3 510      15.50000000
  1 511      15.50000000
  2 511      15.50000000
  3 511      15.50000000
  1 514      15.50000000
  2 514      15.50000000
  3 514      15.50000000
  1 518      15.50000000
  2 518      15.50000000
  3 518      15.50000000
  1 522      15.50000000
  2 522      15.50000000
  3 522      15.50000000
  1 525      15.50000000
  2 525      15.50000000
  3 525      15.50000000
  1 541      15.50000000
  2 541      15.50000000
  3 541      15.50000000
  1 544      15.50000000
  2 544      15.50000000
  3 544      15.50000000
  1 546      15.50000000
  2 546      15.50000000
  3 546      15.50000000
  1 547      15.50000000
  2 547      15.50000000
  3 547      15.50000000
  1 548      15.50000000
  2 548      15.50000000
  3 548      15.50000000
  1 552      15.50000000
  2 552      15.50000000
  3 552      15.50000000
  1 583      15.50000000
  2 583      15.50000000
  3 583      15.50000000
  1 587      15.50000000
  2 587      15.50000000
  3 587      15.50000000
  1 589      15.50000000
  2 589      15.50000000
  3 589      15.50000000
  1 594      15.50000000
  2 594      15.50000000
  3 594      15.50000000
  1 604      15.50000000
  2 604      15.50000000
  3 604      15.50000000
  1 625      15.50000000
  2 625      15.50000000
  3 625      15.50000000
  1 626      15.50000000
  2 626      15.50000000
  3 626      15.50000000
  1 627      15.50000000
  2 627      15.50000000
  3 627      15.50000000
  1 654      15.50000000
  2 654      15.50000000
  3 654      15.50000000
  1 1488      15.50000000
  2 1488      15.50000000
  3 1488      15.50000000
  1 1520      15.50000000
  2 1520      15.50000000
  3 1520      15.50000000
  1 1572      15.50000000
  2 1572      15.50000000
  3 1572      15.50000000
END period  1

