# pleasant model version 0+unknown
# File generated by Flopy version 3.3.6 on 09/23/2022 at 20:46:56.
# via modflow-setup version 0.post363+gbfd5835 at 2022-09-23 20:46:56
BEGIN options
END options

BEGIN timing
  TDIS6  pleasant.tdis
END timing

BEGIN models
  gwf6  pleasant.nam  pleasant
END models

BEGIN exchanges
END exchanges

BEGIN solutiongroup  1
  ims6  pleasant.ims  pleasant
END solutiongroup  1

