# pleasant model version 0+unknown
# File generated by Flopy version 3.3.6 on 09/23/2022 at 20:46:56.
# via modflow-setup version 0.post363+gbfd5835 at 2022-09-23 20:46:56
BEGIN options
  DIGITS  10
  PRINT_INPUT
END options

BEGIN continuous  FILEOUT  pleasant.head.obs
  00400037_uwsp  HEAD  1 21 21
  00400037_uwsp  HEAD  2 21 21
  00400037_uwsp  HEAD  3 21 21
  00400037_uwsp  HEAD  4 21 21
  00400041_uwsp  HEAD  1 20 60
  00400041_uwsp  HEAD  2 20 60
  00400041_uwsp  HEAD  3 20 60
  00400041_uwsp  HEAD  4 20 60
  10019264_lk  HEAD  1 38 66
  10019264_lk  HEAD  2 38 66
  10019264_lk  HEAD  3 38 66
  10019264_lk  HEAD  4 38 66
  10041699_lk  HEAD  1 57 28
  10041699_lk  HEAD  2 57 28
  10041699_lk  HEAD  3 57 28
  10041699_lk  HEAD  4 57 28
  10051235_lk  HEAD  1 31 45
  10051235_lk  HEAD  2 31 45
  10051235_lk  HEAD  3 31 45
  10051235_lk  HEAD  4 31 45
  10051238_lk  HEAD  1 42 34
  10051238_lk  HEAD  2 42 34
  10051238_lk  HEAD  3 42 34
  10051238_lk  HEAD  4 42 34
  10051240_lk  HEAD  1 50 45
  10051240_lk  HEAD  3 50 45
  10051240_lk  HEAD  4 50 45
  5940089321701  HEAD  1 23 47
  5940089321701  HEAD  2 23 47
  5940089321701  HEAD  3 23 47
  5940089321701  HEAD  4 23 47
  5943089334801  HEAD  1 22 27
  5943089334801  HEAD  2 22 27
  5943089334801  HEAD  3 22 27
  5943089334801  HEAD  4 22 27
  5946089323001  HEAD  1 21 44
  5946089323001  HEAD  2 21 44
  5946089323001  HEAD  3 21 44
  5946089323001  HEAD  4 21 44
  5947089351701  HEAD  1 21 7
  5947089351701  HEAD  3 21 7
  5947089351701  HEAD  4 21 7
  ac532  HEAD  1 4 34
  ac532  HEAD  2 4 34
  ac532  HEAD  3 4 34
  ac532  HEAD  4 4 34
  ad154  HEAD  1 27 33
  ad154  HEAD  2 27 33
  ad154  HEAD  3 27 33
  ad154  HEAD  4 27 33
  as281  HEAD  1 32 41
  as281  HEAD  2 32 41
  as281  HEAD  3 32 41
  as281  HEAD  4 32 41
  aw959  HEAD  1 17 3
  aw959  HEAD  3 17 3
  aw959  HEAD  4 17 3
  da063  HEAD  1 29 35
  da063  HEAD  2 29 35
  da063  HEAD  3 29 35
  da063  HEAD  4 29 35
  de137  HEAD  1 12 60
  de137  HEAD  2 12 60
  de137  HEAD  3 12 60
  de137  HEAD  4 12 60
  de144  HEAD  1 36 36
  de144  HEAD  2 36 36
  de144  HEAD  3 36 36
  de144  HEAD  4 36 36
  de519  HEAD  1 29 35
  de519  HEAD  2 29 35
  de519  HEAD  3 29 35
  de519  HEAD  4 29 35
  dr137  HEAD  1 30 27
  dr137  HEAD  2 30 27
  dr137  HEAD  3 30 27
  dr137  HEAD  4 30 27
  dt239  HEAD  1 4 57
  dt239  HEAD  2 4 57
  dt239  HEAD  3 4 57
  dt239  HEAD  4 4 57
  eq361  HEAD  1 32 31
  eq361  HEAD  2 32 31
  eq361  HEAD  3 32 31
  eq361  HEAD  4 32 31
  fs745  HEAD  1 11 59
  fs745  HEAD  2 11 59
  fs745  HEAD  3 11 59
  fs745  HEAD  4 11 59
  fu501  HEAD  1 31 41
  fu501  HEAD  2 31 41
  fu501  HEAD  3 31 41
  fu501  HEAD  4 31 41
  gh395  HEAD  1 6 24
  gh395  HEAD  2 6 24
  gh395  HEAD  3 6 24
  gh395  HEAD  4 6 24
  hd878  HEAD  1 7 58
  hd878  HEAD  2 7 58
  hd878  HEAD  3 7 58
  hd878  HEAD  4 7 58
  hs980  HEAD  1 17 62
  hs980  HEAD  2 17 62
  hs980  HEAD  3 17 62
  hs980  HEAD  4 17 62
  ie431  HEAD  1 20 38
  ie431  HEAD  2 20 38
  ie431  HEAD  3 20 38
  ie431  HEAD  4 20 38
  ie432  HEAD  1 20 44
  ie432  HEAD  2 20 44
  ie432  HEAD  3 20 44
  ie432  HEAD  4 20 44
  ig805  HEAD  1 15 18
  ig805  HEAD  2 15 18
  ig805  HEAD  3 15 18
  ig805  HEAD  4 15 18
  kn382  HEAD  1 28 60
  kn382  HEAD  2 28 60
  kn382  HEAD  3 28 60
  kn382  HEAD  4 28 60
  ko369  HEAD  1 25 3
  ko369  HEAD  3 25 3
  ko369  HEAD  4 25 3
  kp943  HEAD  1 7 13
  kp943  HEAD  2 7 13
  kp943  HEAD  3 7 13
  kp943  HEAD  4 7 13
  kp959  HEAD  1 14 17
  kp959  HEAD  2 14 17
  kp959  HEAD  3 14 17
  kp959  HEAD  4 14 17
  kr958  HEAD  1 15 19
  kr958  HEAD  2 15 19
  kr958  HEAD  3 15 19
  kr958  HEAD  4 15 19
  la249  HEAD  1 23 20
  la249  HEAD  2 23 20
  la249  HEAD  3 23 20
  la249  HEAD  4 23 20
  la257  HEAD  1 19 55
  la257  HEAD  2 19 55
  la257  HEAD  3 19 55
  la257  HEAD  4 19 55
  la801  HEAD  1 14 15
  la801  HEAD  2 14 15
  la801  HEAD  3 14 15
  la801  HEAD  4 14 15
  lc724  HEAD  1 11 25
  lc724  HEAD  2 11 25
  lc724  HEAD  3 11 25
  lc724  HEAD  4 11 25
  lj884  HEAD  1 17 16
  lj884  HEAD  2 17 16
  lj884  HEAD  3 17 16
  lj884  HEAD  4 17 16
  lk_burnit_uwsp  HEAD  1 57 29
  lk_burnit_uwsp  HEAD  2 57 29
  lk_burnit_uwsp  HEAD  3 57 29
  lk_burnit_uwsp  HEAD  4 57 29
  lw001  HEAD  1 33 31
  lw001  HEAD  2 33 31
  lw001  HEAD  3 33 31
  lw001  HEAD  4 33 31
  ly769  HEAD  1 12 46
  ly769  HEAD  2 12 46
  ly769  HEAD  3 12 46
  ly769  HEAD  4 12 46
  mj946  HEAD  1 36 62
  mj946  HEAD  2 36 62
  mj946  HEAD  3 36 62
  mj946  HEAD  4 36 62
  mm634  HEAD  1 22 36
  mm634  HEAD  2 22 36
  mm634  HEAD  3 22 36
  mm634  HEAD  4 22 36
  mt196  HEAD  1 22 27
  mt196  HEAD  2 22 27
  mt196  HEAD  3 22 27
  mt196  HEAD  4 22 27
  mx617  HEAD  1 19 18
  mx617  HEAD  2 19 18
  mx617  HEAD  3 19 18
  mx617  HEAD  4 19 18
  ne742  HEAD  1 3 31
  ne742  HEAD  2 3 31
  ne742  HEAD  3 3 31
  ne742  HEAD  4 3 31
  nm403  HEAD  1 7 44
  nm403  HEAD  2 7 44
  nm403  HEAD  3 7 44
  nm403  HEAD  4 7 44
  nm422  HEAD  1 5 52
  nm422  HEAD  2 5 52
  nm422  HEAD  3 5 52
  nm422  HEAD  4 5 52
  nm425  HEAD  1 5 57
  nm425  HEAD  2 5 57
  nm425  HEAD  3 5 57
  nm425  HEAD  4 5 57
  nn871  HEAD  1 6 54
  nn871  HEAD  2 6 54
  nn871  HEAD  3 6 54
  nn871  HEAD  4 6 54
  nw247  HEAD  1 26 37
  nw247  HEAD  2 26 37
  nw247  HEAD  3 26 37
  nw247  HEAD  4 26 37
  nw269  HEAD  1 13 14
  nw269  HEAD  2 13 14
  nw269  HEAD  3 13 14
  nw269  HEAD  4 13 14
  nw287  HEAD  1 29 38
  nw287  HEAD  2 29 38
  nw287  HEAD  3 29 38
  nw287  HEAD  4 29 38
  nw294  HEAD  1 29 34
  nw294  HEAD  2 29 34
  nw294  HEAD  3 29 34
  nw294  HEAD  4 29 34
  ny036  HEAD  1 12 19
  ny036  HEAD  2 12 19
  ny036  HEAD  3 12 19
  ny036  HEAD  4 12 19
  nz417  HEAD  1 36 34
  nz417  HEAD  2 36 34
  nz417  HEAD  3 36 34
  nz417  HEAD  4 36 34
  nz418  HEAD  1 36 34
  nz418  HEAD  2 36 34
  nz418  HEAD  3 36 34
  nz418  HEAD  4 36 34
  oe658  HEAD  1 36 40
  oe658  HEAD  2 36 40
  oe658  HEAD  3 36 40
  oe658  HEAD  4 36 40
  oe661  HEAD  1 27 35
  oe661  HEAD  2 27 35
  oe661  HEAD  3 27 35
  oe661  HEAD  4 27 35
  oe662  HEAD  1 36 35
  oe662  HEAD  2 36 35
  oe662  HEAD  3 36 35
  oe662  HEAD  4 36 35
  oe664  HEAD  1 35 41
  oe664  HEAD  2 35 41
  oe664  HEAD  3 35 41
  oe664  HEAD  4 35 41
  oe676  HEAD  1 9 46
  oe676  HEAD  2 9 46
  oe676  HEAD  3 9 46
  oe676  HEAD  4 9 46
  oe677  HEAD  1 30 40
  oe677  HEAD  2 30 40
  oe677  HEAD  3 30 40
  oe677  HEAD  4 30 40
  oe679  HEAD  1 7 45
  oe679  HEAD  2 7 45
  oe679  HEAD  3 7 45
  oe679  HEAD  4 7 45
  og359  HEAD  1 30 36
  og359  HEAD  2 30 36
  og359  HEAD  3 30 36
  og359  HEAD  4 30 36
  or193  HEAD  1 31 14
  or193  HEAD  2 31 14
  or193  HEAD  3 31 14
  or193  HEAD  4 31 14
  psnt01_gw  HEAD  1 34 31
  psnt01_gw  HEAD  2 34 31
  psnt01_gw  HEAD  3 34 31
  psnt01_gw  HEAD  4 34 31
  psnt03_gw  HEAD  1 36 40
  psnt03_gw  HEAD  2 36 40
  psnt03_gw  HEAD  3 36 40
  psnt03_gw  HEAD  4 36 40
  psnt05_gw  HEAD  1 32 41
  psnt05_gw  HEAD  2 32 41
  psnt05_gw  HEAD  3 32 41
  psnt05_gw  HEAD  4 32 41
  psnt06_gw  HEAD  1 38 38
  psnt06_gw  HEAD  2 38 38
  psnt06_gw  HEAD  3 38 38
  psnt06_gw  HEAD  4 38 38
  psnt07_gw  HEAD  1 37 36
  psnt07_gw  HEAD  2 37 36
  psnt07_gw  HEAD  3 37 36
  psnt07_gw  HEAD  4 37 36
  psnt08_gw  HEAD  1 38 34
  psnt08_gw  HEAD  2 38 34
  psnt08_gw  HEAD  3 38 34
  psnt08_gw  HEAD  4 38 34
  psnt09_gw  HEAD  1 38 31
  psnt09_gw  HEAD  2 38 31
  psnt09_gw  HEAD  3 38 31
  psnt09_gw  HEAD  4 38 31
  psnt10_gw  HEAD  1 33 42
  psnt10_gw  HEAD  2 33 42
  psnt10_gw  HEAD  3 33 42
  psnt10_gw  HEAD  4 33 42
  psnt11_gw  HEAD  1 29 38
  psnt11_gw  HEAD  2 29 38
  psnt11_gw  HEAD  3 29 38
  psnt11_gw  HEAD  4 29 38
  psnt14_gw  HEAD  1 30 35
  psnt14_gw  HEAD  2 30 35
  psnt14_gw  HEAD  3 30 35
  psnt14_gw  HEAD  4 30 35
  psnt15_gw  HEAD  1 37 30
  psnt15_gw  HEAD  2 37 30
  psnt15_gw  HEAD  3 37 30
  psnt15_gw  HEAD  4 37 30
  psnt16_gw  HEAD  2 31 33
  psnt16_gw  HEAD  3 31 33
  psnt16_gw  HEAD  4 31 33
  qs013  HEAD  1 29 35
  qs013  HEAD  2 29 35
  qs013  HEAD  3 29 35
  qs013  HEAD  4 29 35
  rb457  HEAD  1 28 35
  rb457  HEAD  2 28 35
  rb457  HEAD  3 28 35
  rb457  HEAD  4 28 35
  ri625  HEAD  1 1 25
  ri625  HEAD  2 1 25
  ri625  HEAD  3 1 25
  ri625  HEAD  4 1 25
  ri958  HEAD  1 23 13
  ri958  HEAD  2 23 13
  ri958  HEAD  3 23 13
  ri958  HEAD  4 23 13
  ri969  HEAD  1 22 47
  ri969  HEAD  2 22 47
  ri969  HEAD  3 22 47
  ri969  HEAD  4 22 47
  ri971  HEAD  1 22 18
  ri971  HEAD  2 22 18
  ri971  HEAD  3 22 18
  ri971  HEAD  4 22 18
  ri986  HEAD  1 6 46
  ri986  HEAD  2 6 46
  ri986  HEAD  3 6 46
  ri986  HEAD  4 6 46
  rl168  HEAD  1 35 41
  rl168  HEAD  2 35 41
  rl168  HEAD  3 35 41
  rl168  HEAD  4 35 41
  rl198  HEAD  1 17 12
  rl198  HEAD  2 17 12
  rl198  HEAD  3 17 12
  rl198  HEAD  4 17 12
  rz900  HEAD  1 14 13
  rz900  HEAD  2 14 13
  rz900  HEAD  3 14 13
  rz900  HEAD  4 14 13
  sa454  HEAD  1 19 16
  sa454  HEAD  2 19 16
  sa454  HEAD  3 19 16
  sa454  HEAD  4 19 16
  sb043  HEAD  1 11 24
  sb043  HEAD  2 11 24
  sb043  HEAD  3 11 24
  sb043  HEAD  4 11 24
  sh457  HEAD  1 28 36
  sh457  HEAD  2 28 36
  sh457  HEAD  3 28 36
  sh457  HEAD  4 28 36
  sh461  HEAD  1 10 59
  sh461  HEAD  2 10 59
  sh461  HEAD  3 10 59
  sh461  HEAD  4 10 59
  sh490  HEAD  1 30 33
  sh490  HEAD  2 30 33
  sh490  HEAD  3 30 33
  sh490  HEAD  4 30 33
  sn248  HEAD  1 21 24
  sn248  HEAD  2 21 24
  sn248  HEAD  3 21 24
  sn248  HEAD  4 21 24
  sq695  HEAD  1 26 62
  sq695  HEAD  2 26 62
  sq695  HEAD  3 26 62
  sq695  HEAD  4 26 62
  tg103  HEAD  1 30 36
  tg103  HEAD  2 30 36
  tg103  HEAD  3 30 36
  tg103  HEAD  4 30 36
  tg110  HEAD  1 34 41
  tg110  HEAD  2 34 41
  tg110  HEAD  3 34 41
  tg110  HEAD  4 34 41
  tg135  HEAD  1 21 61
  tg135  HEAD  2 21 61
  tg135  HEAD  3 21 61
  tg135  HEAD  4 21 61
  tj700  HEAD  1 10 26
  tj700  HEAD  2 10 26
  tj700  HEAD  3 10 26
  tj700  HEAD  4 10 26
  tl342  HEAD  1 14 12
  tl342  HEAD  2 14 12
  tl342  HEAD  3 14 12
  tl342  HEAD  4 14 12
  tl572  HEAD  1 29 34
  tl572  HEAD  2 29 34
  tl572  HEAD  3 29 34
  tl572  HEAD  4 29 34
  tl595  HEAD  1 29 34
  tl595  HEAD  2 29 34
  tl595  HEAD  3 29 34
  tl595  HEAD  4 29 34
  tp084  HEAD  1 18 9
  tp084  HEAD  2 18 9
  tp084  HEAD  3 18 9
  tp084  HEAD  4 18 9
  tp085  HEAD  1 29 36
  tp085  HEAD  2 29 36
  tp085  HEAD  3 29 36
  tp085  HEAD  4 29 36
  tp098  HEAD  1 4 40
  tp098  HEAD  2 4 40
  tp098  HEAD  3 4 40
  tp098  HEAD  4 4 40
  tp151  HEAD  1 20 16
  tp151  HEAD  2 20 16
  tp151  HEAD  3 20 16
  tp151  HEAD  4 20 16
  tp608  HEAD  1 19 22
  tp608  HEAD  2 19 22
  tp608  HEAD  3 19 22
  tp608  HEAD  4 19 22
  ts254  HEAD  1 4 24
  ts254  HEAD  2 4 24
  ts254  HEAD  3 4 24
  ts254  HEAD  4 4 24
  tz534  HEAD  1 35 41
  tz534  HEAD  2 35 41
  tz534  HEAD  3 35 41
  tz534  HEAD  4 35 41
  tz549  HEAD  1 19 49
  tz549  HEAD  2 19 49
  tz549  HEAD  3 19 49
  tz549  HEAD  4 19 49
  uf771  HEAD  1 32 41
  uf771  HEAD  2 32 41
  uf771  HEAD  3 32 41
  uf771  HEAD  4 32 41
  uf918  HEAD  1 8 39
  uf918  HEAD  2 8 39
  uf918  HEAD  3 8 39
  uf918  HEAD  4 8 39
  ut698  HEAD  1 30 34
  ut698  HEAD  2 30 34
  ut698  HEAD  3 30 34
  ut698  HEAD  4 30 34
  uw018  HEAD  2 31 33
  uw018  HEAD  3 31 33
  uw018  HEAD  4 31 33
  uz434  HEAD  1 29 39
  uz434  HEAD  2 29 39
  uz434  HEAD  3 29 39
  uz434  HEAD  4 29 39
  uz442  HEAD  1 29 39
  uz442  HEAD  2 29 39
  uz442  HEAD  3 29 39
  uz442  HEAD  4 29 39
  vf165  HEAD  1 30 35
  vf165  HEAD  2 30 35
  vf165  HEAD  3 30 35
  vf165  HEAD  4 30 35
  vh092  HEAD  1 29 34
  vh092  HEAD  2 29 34
  vh092  HEAD  3 29 34
  vh092  HEAD  4 29 34
  vj837  HEAD  1 21 26
  vj837  HEAD  2 21 26
  vj837  HEAD  3 21 26
  vj837  HEAD  4 21 26
  wi482  HEAD  1 25 17
  wi482  HEAD  2 25 17
  wi482  HEAD  3 25 17
  wi482  HEAD  4 25 17
  wj508  HEAD  1 9 60
  wj508  HEAD  2 9 60
  wj508  HEAD  3 9 60
  wj508  HEAD  4 9 60
  wm570  HEAD  1 20 34
  wm570  HEAD  2 20 34
  wm570  HEAD  3 20 34
  wm570  HEAD  4 20 34
  wp698  HEAD  2 31 37
  wp698  HEAD  3 31 37
  wp698  HEAD  4 31 37
  wy369  HEAD  1 30 34
  wy369  HEAD  2 30 34
  wy369  HEAD  3 30 34
  wy369  HEAD  4 30 34
  wz276  HEAD  1 20 33
  wz276  HEAD  2 20 33
  wz276  HEAD  3 20 33
  wz276  HEAD  4 20 33
  xh356  HEAD  1 29 36
  xh356  HEAD  2 29 36
  xh356  HEAD  3 29 36
  xh356  HEAD  4 29 36
  xh382  HEAD  1 36 68
  xh382  HEAD  2 36 68
  xh382  HEAD  3 36 68
  xh382  HEAD  4 36 68
  xq289  HEAD  1 30 34
  xq289  HEAD  2 30 34
  xq289  HEAD  3 30 34
  xq289  HEAD  4 30 34
  xq291  HEAD  1 27 42
  xq291  HEAD  2 27 42
  xq291  HEAD  3 27 42
  xq291  HEAD  4 27 42
  xs845  HEAD  1 29 22
  xs845  HEAD  2 29 22
  xs845  HEAD  3 29 22
  xs845  HEAD  4 29 22
  xu002  HEAD  1 33 42
  xu002  HEAD  2 33 42
  xu002  HEAD  3 33 42
  xu002  HEAD  4 33 42
  xy603  HEAD  1 23 19
  xy603  HEAD  2 23 19
  xy603  HEAD  3 23 19
  xy603  HEAD  4 23 19
  xz625  HEAD  1 24 20
  xz625  HEAD  2 24 20
  xz625  HEAD  3 24 20
  xz625  HEAD  4 24 20
  yg202  HEAD  1 17 24
  yg202  HEAD  2 17 24
  yg202  HEAD  3 17 24
  yg202  HEAD  4 17 24
  yh229  HEAD  1 17 44
  yh229  HEAD  2 17 44
  yh229  HEAD  3 17 44
  yh229  HEAD  4 17 44
  yq987  HEAD  1 30 35
  yq987  HEAD  2 30 35
  yq987  HEAD  3 30 35
  yq987  HEAD  4 30 35
  ys864  HEAD  1 16 12
  ys864  HEAD  2 16 12
  ys864  HEAD  3 16 12
  ys864  HEAD  4 16 12
END continuous  FILEOUT  pleasant.head.obs

