# pleasant model version 0+unknown
# File generated by Flopy version 3.3.6 on 09/23/2022 at 20:46:56.
# via modflow-setup version 0.post363+gbfd5835 at 2022-09-23 20:46:56
BEGIN options
  BOUNDNAMES
  SAVE_FLOWS
  OBS6  FILEIN  pleasant.lak.obs
  SURFDEP       0.10000000
  TIME_CONVERSION   86400.00000000
  LENGTH_CONVERSION       1.00000000
END options

BEGIN dimensions
  NLAKES  1
  NOUTLETS  0
  NTABLES  1
END dimensions

BEGIN packagedata
  1     290.88000000  55  lake1
END packagedata

BEGIN connectiondata
  1  1  2 33 32  vertical       0.02500000       0.00000000       0.00000000       0.00000000       0.00000000
  1  2  2 33 38  vertical       0.02500000       0.00000000       0.00000000       0.00000000       0.00000000
  1  3  2 36 31  vertical       0.04500000       0.00000000       0.00000000       0.00000000       0.00000000
  1  4  2 34 37  vertical       0.02500000       0.00000000       0.00000000       0.00000000       0.00000000
  1  5  2 33 35  vertical       0.02500000       0.00000000       0.00000000       0.00000000       0.00000000
  1  6  2 34 40  vertical       0.02500000       0.00000000       0.00000000       0.00000000       0.00000000
  1  7  2 36 37  vertical       0.04500000       0.00000000       0.00000000       0.00000000       0.00000000
  1  8  2 32 33  vertical       0.02500000       0.00000000       0.00000000       0.00000000       0.00000000
  1  9  2 30 39  vertical       0.04500000       0.00000000       0.00000000       0.00000000       0.00000000
  1  10  2 32 36  vertical       0.02500000       0.00000000       0.00000000       0.00000000       0.00000000
  1  11  2 32 39  vertical       0.02500000       0.00000000       0.00000000       0.00000000       0.00000000
  1  12  2 35 32  vertical       0.02500000       0.00000000       0.00000000       0.00000000       0.00000000
  1  13  2 35 38  vertical       0.02500000       0.00000000       0.00000000       0.00000000       0.00000000
  1  14  2 35 35  vertical       0.02500000       0.00000000       0.00000000       0.00000000       0.00000000
  1  15  2 37 32  vertical       0.04500000       0.00000000       0.00000000       0.00000000       0.00000000
  1  16  2 37 38  vertical       0.04500000       0.00000000       0.00000000       0.00000000       0.00000000
  1  17  2 31 34  vertical       0.04500000       0.00000000       0.00000000       0.00000000       0.00000000
  1  18  2 34 36  vertical       0.02500000       0.00000000       0.00000000       0.00000000       0.00000000
  1  19  2 33 34  vertical       0.02500000       0.00000000       0.00000000       0.00000000       0.00000000
  1  20  2 33 40  vertical       0.02500000       0.00000000       0.00000000       0.00000000       0.00000000
  1  21  2 31 40  vertical       0.04500000       0.00000000       0.00000000       0.00000000       0.00000000
  1  22  2 34 33  vertical       0.02500000       0.00000000       0.00000000       0.00000000       0.00000000
  1  23  2 33 37  vertical       0.02500000       0.00000000       0.00000000       0.00000000       0.00000000
  1  24  2 34 39  vertical       0.02500000       0.00000000       0.00000000       0.00000000       0.00000000
  1  25  2 36 33  vertical       0.02500000       0.00000000       0.00000000       0.00000000       0.00000000
  1  26  2 36 39  vertical       0.02500000       0.00000000       0.00000000       0.00000000       0.00000000
  1  27  2 30 38  vertical       0.04500000       0.00000000       0.00000000       0.00000000       0.00000000
  1  28  2 32 32  vertical       0.02500000       0.00000000       0.00000000       0.00000000       0.00000000
  1  29  2 32 38  vertical       0.02500000       0.00000000       0.00000000       0.00000000       0.00000000
  1  30  2 35 31  vertical       0.04500000       0.00000000       0.00000000       0.00000000       0.00000000
  1  31  2 32 35  vertical       0.02500000       0.00000000       0.00000000       0.00000000       0.00000000
  1  32  2 35 34  vertical       0.04500000       0.00000000       0.00000000       0.00000000       0.00000000
  1  33  2 35 37  vertical       0.02500000       0.00000000       0.00000000       0.00000000       0.00000000
  1  34  2 35 40  vertical       0.04500000       0.00000000       0.00000000       0.00000000       0.00000000
  1  35  2 31 36  vertical       0.04500000       0.00000000       0.00000000       0.00000000       0.00000000
  1  36  2 33 33  vertical       0.02500000       0.00000000       0.00000000       0.00000000       0.00000000
  1  37  2 31 39  vertical       0.02500000       0.00000000       0.00000000       0.00000000       0.00000000
  1  38  2 34 32  vertical       0.02500000       0.00000000       0.00000000       0.00000000       0.00000000
  1  39  2 33 36  vertical       0.02500000       0.00000000       0.00000000       0.00000000       0.00000000
  1  40  2 34 38  vertical       0.02500000       0.00000000       0.00000000       0.00000000       0.00000000
  1  41  2 34 35  vertical       0.02500000       0.00000000       0.00000000       0.00000000       0.00000000
  1  42  2 36 32  vertical       0.02500000       0.00000000       0.00000000       0.00000000       0.00000000
  1  43  2 33 39  vertical       0.02500000       0.00000000       0.00000000       0.00000000       0.00000000
  1  44  2 36 38  vertical       0.02500000       0.00000000       0.00000000       0.00000000       0.00000000
  1  45  2 32 34  vertical       0.02500000       0.00000000       0.00000000       0.00000000       0.00000000
  1  46  2 32 40  vertical       0.02500000       0.00000000       0.00000000       0.00000000       0.00000000
  1  47  2 32 37  vertical       0.02500000       0.00000000       0.00000000       0.00000000       0.00000000
  1  48  2 35 36  vertical       0.02500000       0.00000000       0.00000000       0.00000000       0.00000000
  1  49  2 37 33  vertical       0.04500000       0.00000000       0.00000000       0.00000000       0.00000000
  1  50  2 35 33  vertical       0.02500000       0.00000000       0.00000000       0.00000000       0.00000000
  1  51  2 35 39  vertical       0.02500000       0.00000000       0.00000000       0.00000000       0.00000000
  1  52  2 31 32  vertical       0.04500000       0.00000000       0.00000000       0.00000000       0.00000000
  1  53  2 31 38  vertical       0.02500000       0.00000000       0.00000000       0.00000000       0.00000000
  1  54  2 31 35  vertical       0.02500000       0.00000000       0.00000000       0.00000000       0.00000000
  1  55  2 34 34  vertical       0.02500000       0.00000000       0.00000000       0.00000000       0.00000000
END connectiondata

BEGIN tables
  1  TAB6  FILEIN  ./external/600059060_stage_area_volume.dat
END tables

BEGIN period  1
  1  rainfall  0.0026829936043197404
  1  runoff  0.0
  1  evaporation  0.0006298262025336207
  1  withdrawal  0.0
END period  1

BEGIN period  2
  1  rainfall  0.0006472903225806452
  1  runoff  0.0
  1  evaporation  0.0002576362885573776
  1  withdrawal  0.0
END period  2

BEGIN period  3
  1  rainfall  0.0008758620689655173
  1  runoff  0.0
  1  evaporation  0.0004085819980228165
  1  withdrawal  0.0
END period  3

BEGIN period  4
  1  rainfall  0.002425290322580645
  1  runoff  0.0
  1  evaporation  0.0011436341364568878
  1  withdrawal  0.0
END period  4

BEGIN period  5
  1  rainfall  0.0030564666666666666
  1  runoff  0.0
  1  evaporation  0.0013827463730816112
  1  withdrawal  0.0
END period  5

BEGIN period  6
  1  rainfall  0.005743677419354838
  1  runoff  0.0
  1  evaporation  0.002887124492699703
  1  withdrawal  0.0
END period  6

BEGIN period  7
  1  rainfall  0.0014816666666666665
  1  runoff  0.0
  1  evaporation  0.004020965243130107
  1  withdrawal  0.0
END period  7

BEGIN period  8
  1  rainfall  0.0003769032258064516
  1  runoff  0.0
  1  evaporation  0.005004471438241816
  1  withdrawal  0.0
END period  8

BEGIN period  9
  1  rainfall  0.002318774193548387
  1  runoff  0.0
  1  evaporation  0.003269811775826732
  1  withdrawal  0.0
END period  9

BEGIN period  10
  1  rainfall  0.0008636000000000001
  1  runoff  0.0
  1  evaporation  0.0018495745973831075
  1  withdrawal  0.0
END period  10

BEGIN period  11
  1  rainfall  0.004563806451612903
  1  runoff  0.0
  1  evaporation  0.0008984485130861423
  1  withdrawal  0.0
END period  11

BEGIN period  12
  1  rainfall  0.0011345333333333334
  1  runoff  0.0
  1  evaporation  0.00045804724944191835
  1  withdrawal  0.0
END period  12

BEGIN period  13
  1  rainfall  0.0016223225806451611
  1  runoff  0.0
  1  evaporation  0.0002789859599701167
  1  withdrawal  0.0
END period  13

