# pleasant model version 0+unknown
# File generated by Flopy version 3.3.6 on 09/23/2022 at 20:46:56.
# via modflow-setup version 0.post363+gbfd5835 at 2022-09-23 20:46:56
BEGIN options
  LENGTH_UNITS  meters
  XORIGIN  5.52400000E+05
  YORIGIN  3.87200000E+05
  ANGROT       0.00000000
END options

BEGIN dimensions
  NLAY  4
  NROW  64
  NCOL  68
END dimensions

BEGIN griddata
  delr
    INTERNAL  FACTOR  1.0
       100.00000000     100.00000000     100.00000000     100.00000000     100.00000000     100.00000000     100.00000000     100.00000000     100.00000000     100.00000000     100.00000000     100.00000000     100.00000000     100.00000000     100.00000000     100.00000000     100.00000000     100.00000000     100.00000000     100.00000000     100.00000000     100.00000000     100.00000000     100.00000000     100.00000000     100.00000000     100.00000000     100.00000000     100.00000000     100.00000000     100.00000000     100.00000000     100.00000000     100.00000000     100.00000000     100.00000000     100.00000000     100.00000000     100.00000000     100.00000000     100.00000000     100.00000000     100.00000000     100.00000000     100.00000000     100.00000000     100.00000000     100.00000000     100.00000000     100.00000000     100.00000000     100.00000000     100.00000000     100.00000000     100.00000000     100.00000000     100.00000000     100.00000000     100.00000000     100.00000000     100.00000000     100.00000000     100.00000000     100.00000000     100.00000000     100.00000000     100.00000000     100.00000000
  delc
    INTERNAL  FACTOR  1.0
       100.00000000     100.00000000     100.00000000     100.00000000     100.00000000     100.00000000     100.00000000     100.00000000     100.00000000     100.00000000     100.00000000     100.00000000     100.00000000     100.00000000     100.00000000     100.00000000     100.00000000     100.00000000     100.00000000     100.00000000     100.00000000     100.00000000     100.00000000     100.00000000     100.00000000     100.00000000     100.00000000     100.00000000     100.00000000     100.00000000     100.00000000     100.00000000     100.00000000     100.00000000     100.00000000     100.00000000     100.00000000     100.00000000     100.00000000     100.00000000     100.00000000     100.00000000     100.00000000     100.00000000     100.00000000     100.00000000     100.00000000     100.00000000     100.00000000     100.00000000     100.00000000     100.00000000     100.00000000     100.00000000     100.00000000     100.00000000     100.00000000     100.00000000     100.00000000     100.00000000     100.00000000     100.00000000     100.00000000     100.00000000
  top
    OPEN/CLOSE  './external/top.dat'  FACTOR  1.0
  botm  LAYERED
    OPEN/CLOSE  './external/botm_000.dat'  FACTOR  1.0
    OPEN/CLOSE  './external/botm_001.dat'  FACTOR  1.0
    OPEN/CLOSE  './external/botm_002.dat'  FACTOR  1.0
    OPEN/CLOSE  './external/botm_003.dat'  FACTOR  1.0
  idomain  LAYERED
    OPEN/CLOSE  './external/idomain_000.dat'  FACTOR  1
    OPEN/CLOSE  './external/idomain_001.dat'  FACTOR  1
    OPEN/CLOSE  './external/idomain_002.dat'  FACTOR  1
    OPEN/CLOSE  './external/idomain_003.dat'  FACTOR  1
END griddata

