BEGIN OPTIONS
  DIGITS 5
  PRINT_INPUT
END OPTIONS
BEGIN CONTINUOUS FILEOUT pleasant.sfr.obs.output.csv
# obsname  obstype  rno
  2000000  downstream-flow  2
  1000000  downstream-flow  59
END CONTINUOUS
