# pleasant model version 0+unknown
# File generated by Flopy version 3.3.6 on 09/23/2022 at 20:46:56.
# via modflow-setup version 0.post363+gbfd5835 at 2022-09-23 20:46:56
BEGIN options
  TIME_UNITS  days
  START_DATE_TIME  2012-01-01
END options

BEGIN dimensions
  NPER  13
END dimensions

BEGIN perioddata
  # perlen nstp tsmult
  1.00000000  1       1.00000000  # period 1: 2012-01-01 to 2012-01-01
  31.00000000  1       1.50000000  # period 2: 2012-01-01 to 2012-02-01
  29.00000000  1       1.50000000  # period 3: 2012-02-01 to 2012-03-01
  31.00000000  1       1.50000000  # period 4: 2012-03-01 to 2012-04-01
  30.00000000  1       1.50000000  # period 5: 2012-04-01 to 2012-05-01
  31.00000000  1       1.50000000  # period 6: 2012-05-01 to 2012-06-01
  30.00000000  1       1.50000000  # period 7: 2012-06-01 to 2012-07-01
  31.00000000  1       1.50000000  # period 8: 2012-07-01 to 2012-08-01
  31.00000000  1       1.50000000  # period 9: 2012-08-01 to 2012-09-01
  30.00000000  1       1.50000000  # period 10: 2012-09-01 to 2012-10-01
  31.00000000  1       1.50000000  # period 11: 2012-10-01 to 2012-11-01
  30.00000000  1       1.50000000  # period 12: 2012-11-01 to 2012-12-01
  31.00000000  1       1.50000000  # period 13: 2012-12-01 to 2013-01-01
END perioddata

