# pleasant model version 0+unknown
# File generated by Flopy version 3.3.6 on 09/23/2022 at 20:46:56.
# via modflow-setup version 0.post363+gbfd5835 at 2022-09-23 20:46:56
BEGIN options
  SAVE_FLOWS
END options

BEGIN griddata
  iconvert
    CONSTANT  1
  ss  LAYERED
    OPEN/CLOSE  './external/ss_000.dat'  FACTOR  1.0
    OPEN/CLOSE  './external/ss_001.dat'  FACTOR  1.0
    OPEN/CLOSE  './external/ss_002.dat'  FACTOR  1.0
    OPEN/CLOSE  './external/ss_003.dat'  FACTOR  1.0
  sy  LAYERED
    OPEN/CLOSE  './external/sy_000.dat'  FACTOR  1.0
    OPEN/CLOSE  './external/sy_001.dat'  FACTOR  1.0
    OPEN/CLOSE  './external/sy_002.dat'  FACTOR  1.0
    OPEN/CLOSE  './external/sy_003.dat'  FACTOR  1.0
END griddata

BEGIN period  1
  STEADY-STATE
END period  1

BEGIN period  2
  TRANSIENT
END period  2

BEGIN period  3
  TRANSIENT
END period  3

BEGIN period  4
  TRANSIENT
END period  4

BEGIN period  5
  TRANSIENT
END period  5

BEGIN period  6
  TRANSIENT
END period  6

BEGIN period  7
  TRANSIENT
END period  7

BEGIN period  8
  TRANSIENT
END period  8

BEGIN period  9
  TRANSIENT
END period  9

BEGIN period  10
  TRANSIENT
END period  10

BEGIN period  11
  TRANSIENT
END period  11

BEGIN period  12
  TRANSIENT
END period  12

BEGIN period  13
  TRANSIENT
END period  13

