# pleasant model version 0+unknown
# File generated by Flopy version 3.3.6 on 09/23/2022 at 20:46:56.
# via modflow-setup version 0.post363+gbfd5835 at 2022-09-23 20:46:56
BEGIN options
END options

BEGIN continuous  FILEOUT  pleasant.chd.obs.output.csv
# obsname obstype ID
  east  chd  east
  west  chd  west
  north  chd  north
  south  chd  south
END continuous  FILEOUT  pleasant.chd.obs.output.csv

