# pleasant model version 0+unknown
# File generated by Flopy version 3.3.6 on 09/23/2022 at 20:46:56.
# via modflow-setup version 0.post363+gbfd5835 at 2022-09-23 20:46:56
BEGIN options
  BUDGET  FILEOUT  pleasant.cbc
  HEAD  FILEOUT  pleasant.hds
END options

BEGIN period  1
  SAVE  head  last
  SAVE  budget  last
END period  1

