# pleasant model version 0+unknown
# File generated by Flopy version 3.3.6 on 09/23/2022 at 20:46:56.
# via modflow-setup version 0.post363+gbfd5835 at 2022-09-23 20:46:56
BEGIN griddata
  strt  LAYERED
    OPEN/CLOSE  './external/strt_000.dat'  FACTOR  1.0
    OPEN/CLOSE  './external/strt_001.dat'  FACTOR  1.0
    OPEN/CLOSE  './external/strt_002.dat'  FACTOR  1.0
    OPEN/CLOSE  './external/strt_003.dat'  FACTOR  1.0
END griddata

