# File generated by Flopy version 3.3.6 on 10/27/2022 at 08:48:22.
BEGIN options
  PRINT_INPUT
END options

BEGIN continuous  FILEOUT  sfr_obs.csv
  UPSTREAM  SFR  UPSTREAM
  DOWNSTREAM  SFR  DOWNSTREAM
  GAGE1  downstream-flow  410
  GAGE2  ext-outflow  1000
END continuous  FILEOUT  sfr_obs.csv

