# File generated by Flopy version 3.3.6 on 10/27/2022 at 08:48:22.
BEGIN options
  READASARRAYS
END options

BEGIN period  1
  recharge
    CONSTANT  1.38240000E-04
END period  1

