# File generated by Flopy version 3.3.6 on 10/27/2022 at 08:48:21.
BEGIN options
  LENGTH_UNITS  meters
END options

BEGIN dimensions
  NLAY  3
  NCPL  5108
  NVERT  6196
END dimensions

BEGIN griddata
  top
    INTERNAL  FACTOR  1.0
        26.29376793      26.15225029      25.82838440      25.31232262      24.74437714      24.09920311      23.30930901      22.62514687      21.80702591      20.93299675      19.98369026      18.98708534      17.86941910      17.86941910      18.13564634      17.54362774      16.58889580      16.58889580      16.58889580      16.58889580
        16.58889580      16.58889580      16.58889580      16.58889580      16.58889580      16.58889580      16.58889580      16.58889580      16.58889580      16.58889580      16.58889580      16.58889580      16.58889580      16.58889580      16.58889580      16.58889580      16.58889580      16.58889580      16.58889580      16.58889580
        16.58889580      16.58889580      16.58889580      16.58889580      16.58889580      16.58889580      16.58889580      16.58889580      17.06626177      16.82757878      16.70823729      16.62820458      16.70682216      16.62678945      16.82474852      16.70540702      16.62537432      16.70399189      16.62395918      17.06060123
        16.82191825      16.70257676      16.62254405      16.70116162      16.62112892      16.81908798      16.69974649      16.61971378      16.69833136      16.61829865      16.60625994      16.64381850      16.60342968      16.64098823      16.69874120      16.60059941      16.63815796      16.59776914      16.63532770      16.69308066
        16.88936424      16.88936424      16.80858660      16.94720268      17.20077515      17.49247169      17.69085121      17.81308556      17.88638115      26.36151505      26.20369339      25.86834526      25.32624435      24.80200768      24.14069557      23.34192467      22.61354256      21.80819893      20.85213470      19.89815903
        18.93432808      18.12339163      17.53137302      18.08966303      17.52107143      17.05494070      16.81625772      16.69691622      16.61688352      16.69550109      16.61546838      16.81342745      16.69408596      16.61405325      16.69267082      16.61263812      17.04881334      16.81059718      16.65053177      16.80753350
        16.64770150      16.59493887      16.63249743      16.58342654      16.60220581      16.58201140      16.60079068      16.62966716      16.68742013      16.58059627      16.59937555      16.57918113      16.59796041      16.62683690      16.57776600      16.59654528      16.57635087      16.59169561      16.61713755      16.66802144
        17.04366255      16.80495811      16.64512610      16.80287099      16.64303899      17.03948832      16.71982431      16.56530523      16.58064997      16.56426167      16.56340837      16.59599471      16.61133945      16.57875311      16.59409785      16.56226969      16.56151152      16.57685626      16.56046796      16.55961466
        16.62573576      16.65642524      16.59125257      16.62194204      16.56018257      16.55942440      16.55857110      16.55838084      16.55752754      16.55809546      16.55733728      16.55648398      16.55629373      16.55544043      16.55676937      16.58745885      16.55563068      16.55477738      16.55458713      16.55373383
        16.55297565      16.76978922      16.90840530      16.68521786      16.74659681      16.61625147      16.67763042      16.82004023      17.12071800      17.44531822      17.67934608      17.80474091      17.87713432      26.47754097      26.31918526      25.95449066      25.39498520      24.88223839      24.19883347      23.35776901
        22.62951279      21.75461388      20.78977966      19.76937485      18.82392311      18.03743124      17.46883965      18.01403904      17.44544744      17.03531408      16.71565008      17.00919819      16.71147585      16.55600834      16.55430174      16.55392122      16.55221462      16.55354357      16.55269027      16.55250001
        16.55164671      16.55088854      16.55145645      16.55060315      16.55041289      16.54955959      16.54974985      16.54889655      16.54870629      16.54785299      16.54993725      16.54842091      16.54766273      16.54680943      16.54661918      16.54576588      16.54633379      16.54557562      16.54472232      16.54453206
        16.54367876      16.85000277      16.59805679      16.57039356      16.56868696      16.62060022      16.61889362      16.69847012      16.69505692      16.54918194      16.57987142      16.54709482      16.54538822      16.60866404      16.54500771      16.54330111      16.54386902      16.54301572      16.54282546      16.54197216
        16.54121399      16.53969765      16.68210745      16.55485535      16.55400205      16.57995868      16.57910538      16.55314875      16.55229545      16.57825208      16.57739878      16.61718702      16.60335541      16.60250211      16.62845874      16.62760544      16.56356716      16.56186056      16.60164881      16.60079551
        16.62675214      16.59954989      16.55936933      16.66739368      16.66568708      16.71760035      16.66319585      16.62550652      16.59830427      16.62426090      16.59705865      16.57110202      16.54389977      16.56985641      16.54265416      16.60879135      16.56861079      16.54140854      16.56736517      16.54016292
        16.58640432      16.71166086      16.55617166      16.60916328      16.55368042      16.60667205      16.68740511      16.93262053      17.14651918      16.88741779      17.10131645      17.39149857      17.64127159      17.77992058      17.85742950      26.70623398      26.52025795      26.12357521      25.53606987      24.97867775
        24.29896355      23.39378548      22.58577156      21.69142151      20.53537369      19.53383446      18.64450455      17.75134087      17.05082941      16.84738350      17.13472366      16.82588196      16.68666124      16.60630012      16.56611955      16.53891730      16.56487393      16.53767169      16.60380888      16.56362832
        16.53642607      16.56238270      16.53518045      16.68167877      16.60131764      16.54691315      16.59882641      16.54442191      16.55118918      16.60418081      16.53607285      16.56256866      16.53482723      16.56132305      16.60168958      16.68242264      16.53358161      16.56007743      16.53233600      16.55883181
        16.59919834      16.53109038      16.55758619      16.52984476      16.55634058      16.59670711      16.67744017      16.67092800      16.59345102      16.53904653      16.58519149      16.53619576      16.65440893      16.55641747      16.52876377      16.55525959      16.52733839      16.55434322      16.58175540      16.60825121
        16.58083904      16.60733485      16.53870273      16.57992268      16.60641849      16.57849729      16.60550213      16.64753675      16.70052838      16.64570403      16.69869566      16.53585196      16.57707191      16.60407674      16.57564652      16.60265136      16.53300118      16.57422113      16.60122597      16.57279575
        16.59980059      16.64387131      16.69686294      16.64102054      16.69503021      16.83890629      17.05280495      16.77909946      16.88508272      16.77543402      16.88141727      17.02851439      17.36073112      17.60328865      17.74841309      17.82458115      27.04010773      26.79801941      26.35126114      25.75040436
        25.11728668      24.35413742      23.46774483      22.60632133      21.41242790      20.28082085      19.30970955      18.44668579      17.58135796      17.10168552      16.79284382      16.95569992      16.77778482      16.64870739      16.55071592      16.64300585      16.57093763      16.52194190      16.56808686      16.51909113
        16.53015041      16.57137036      16.59837520      16.56994498      16.59694982      16.52729964      16.56851959      16.59552443      16.56709421      16.59409904      16.63816977      16.69217944      16.63531899      16.68932867      16.52444887      16.56566882      16.59267366      16.56424344      16.59124827      16.50880837
        16.53581321      16.50738299      16.53438783      16.56281805      16.58982289      16.56139266      16.58839750      16.63246822      16.68647790      16.62961745      16.68362713      16.63547635      16.56432211      16.51532638      16.55964339      16.51064765      16.62611890      16.55496466      16.50596893      16.55028594
        16.51470882      16.49021095      16.51236945      16.48787159      16.50675964      16.53376448      16.50442028      16.53394318      16.57436109      16.50208092      16.53160381      16.49974155      16.52926445      16.57471848      16.65555429      16.49740219      16.52692509      16.49506283      16.52458572      16.57003975
        16.49272346      16.52224636      16.49038410      16.51990700      16.56536102      16.65626907      16.77176857      16.87775183      16.76606703      16.87408638      17.02118349      16.81794071      17.01823282      17.29433632      17.55799675      17.70453072      17.78160095      27.38142014      27.20324135      26.70519257
        26.00217438      25.26651001      24.42790794      23.47077560      22.40575981      21.34467697      20.03941917      18.96212006      18.09604836      17.50305080      17.09683228      17.29314852      16.98957944      16.81602502      16.80749583      16.63394141      16.74972343      16.62548280      16.62112212      16.52249455
        16.54497111      16.54279077      16.49347699      16.49129665      16.64247060      16.46891618      16.54929650      16.46251929      16.45825469      16.45661151      16.46087611      16.45923293      16.45685607      16.45603448      16.45390218      16.45308059      16.45521289      16.45439130      16.45225900      16.45143741
        16.48543847      16.48325813      16.47953069      16.50382501      16.50273484      16.50087112      16.51608270      16.48107779      16.47276860      16.47167844      16.48611647      16.48502630      16.50164467      16.50055450      16.51499254      16.51390237      16.49946433      16.49837416      16.51281220      16.51172203
        16.46749407      16.48270565      16.46454018      16.47975177      16.49791723      16.51312882      16.49496335      16.51017493      16.46158630      16.47679788      16.45863241      16.47384399      16.49813831      16.53446925      16.53228891      16.52856147      16.55898464      16.64359868      16.59460294      16.59210455
        16.58992422      16.54560721      16.51003009      16.48553222      16.50769073      16.48319286      16.55434710      16.52984923      16.55200773      16.52750987      16.50535136      16.48085350      16.50301200      16.47851413      16.54061043      16.53843009      16.48911631      16.50035459      16.49926442      16.47460753
        16.47351736      16.54966837      16.52517051      16.52392131      16.52283114      16.48725402      16.49817425      16.49708408      16.47242719      16.47133702      16.48257530      16.50163651      16.56068230      16.49695778      16.55600357      16.64691162      16.51946259      16.63755417      16.47058827      16.46949810
        16.48393613      16.48284596      16.46840793      16.46731776      16.48175579      16.48066562      16.50341284      16.50123250      16.47235644      16.47017610      16.49905217      16.49687183      16.54236627      16.53800559      16.54147959      16.65957117      16.59487104      16.71296263      16.81937027      17.01966238
        16.86340427      17.00896311      17.26909828      17.49712372      17.65663719      17.73657227      27.73991394      27.60954857      27.20918846      26.21868134      25.37980843      24.38636589      23.33897591      22.21364212      21.03311348      19.67048454      18.64862633      17.99332905      17.54464865      17.83700323
        17.35515738      16.92898130      16.62541223      16.54076731      16.45399010      16.44972551      16.44808233      16.44332862      16.44381773      16.44406229      16.44324070      16.44110841      16.44028682      16.43790996      16.43815452      16.43733293      16.43520063      16.43437904      16.89711070      16.58927703
        16.88970304      16.58186936      16.43639052      16.43474734      16.43268669      16.43104351      16.43310416      16.43279773      16.43197614      16.43094581      16.43012422      16.43073708      16.42991549      16.42888516      16.42806357      16.42909390      16.42827231      16.42724198      16.42642039      16.42898285
        16.42733967      16.42527902      16.42363584      16.42703325      16.42621166      16.42518133      16.42435974      16.42405331      16.42332941      16.42250782      16.42147750      16.42065591      16.42034948      16.45234692      16.45259148      16.45176989      16.44963759      16.44881600      16.44832689      16.44750530
        16.44537300      16.44455141      16.44668370      16.44586211      16.44372982      16.44290823      16.45094830      16.45012671      16.44799441      16.44717282      16.44741738      16.44315279      16.44150960      16.44241911      16.44159752      16.43946522      16.43864363      16.43888819      16.43462360      16.43298042
        16.43346953      16.46180737      16.49223053      16.45589960      16.48632276      16.53491139      16.46224952      16.52309585      16.42981780      16.42817461      16.42611396      16.42447078      16.42385793      16.41973662      16.44287944      16.50578642      16.62027311      16.73400402      16.62747908      16.74207067
        16.97891998      17.25153923      17.45872498      17.60689354      17.68170738      28.25228882      28.15772247      28.03665924      28.03665924      25.37980843      24.38636589      22.77177620      22.01248169      20.51136589      19.24500084      18.33681679      17.71655416      17.23470831      17.60378838      17.15059710
        16.88229537      16.57446170      16.82207084      16.56705403      16.42157519      16.41993201      16.41787136      16.41622818      16.41962558      16.41880399      16.41777366      16.41695207      16.41664565      16.41592175      16.41510016      16.41406983      16.41985554      16.42615640      16.41416752      16.41386110
        16.41303951      16.41200918      16.41779488      16.41046369      16.41676456      16.42255026      16.42151994      16.42730564      16.41882521      16.42461091      16.42358059      16.42936629      16.43566716      16.43360651      16.44517791      16.78001523      16.52499843      16.75612855      16.51940656      16.40726388
        16.41992003      16.42570573      16.41196483      16.41775054      16.40446794      16.40400964      16.40979534      16.40261167      16.40184015      16.43040669      16.44197810      16.41449630      16.42606771      16.40167201      16.40121371      16.40044218      16.39981574      16.39904422      16.39887607      16.39841777
        16.39764625      16.39701980      16.39624828      16.39858592      16.41015732      16.39578998      16.39424694      16.43875813      16.46190095      16.45777965      16.48092246      16.54382944      16.45138001      16.47452283      16.41955924      16.44270205      16.52160501      16.70768929      16.88760424      17.03316307
        16.87617683      16.99958658      17.20132828      17.41071701      17.54417229      17.61794662      28.70954895      28.66289902      28.59292793      28.59292793      25.37980843      22.77177620      22.77177620      22.01248169      19.48368263      18.80153275      18.12665176      17.55601501      17.10282373      17.48837280
        17.11856556      16.75053668      16.51381469      16.74494481      16.50822282      16.39608014      16.39562184      16.39485031      16.39422387      16.39345235      16.39328420      16.39282590      16.39205438      16.39142793      16.39065641      16.39299405      16.39145100      16.39019811      16.38865507      16.39048827
        16.39002997      16.38925844      16.38863200      16.38786048      16.38769233      16.38723403      16.38646251      16.38583606      16.38506454      16.38740218      16.38585913      16.38569099      16.38491946      16.38429302      16.38352150      16.38306320      16.75281572      16.51609373      16.77414942      16.62646818
        16.41388798      16.41234493      16.46907520      16.46753216      16.39739084      16.39661932      16.42498446      16.42421293      16.40925884      16.45257807      16.45180655      16.48017168      16.47940016      16.46444607      16.52426243      16.52271938      16.57944965      16.57790661      16.50776529      16.50699377
        16.53535891      16.53458738      16.50622225      16.50545073      16.53381586      16.53304434      16.57636356      16.56140947      16.56063795      16.58900309      16.58823156      16.38773847      16.41088128      16.38214660      16.37906051      16.45796347      16.43453789      16.43145180      16.51809025      16.51654720
        16.55986643      16.55909491      16.58746004      16.55825126      16.51485991      16.42807722      16.37081218      16.42734122      16.36743760      16.36299348      16.57102156      16.69641018      16.47996092      16.60534954      16.81305599      16.87622643      16.78634310      16.84466600      16.87625122      16.83130956
        16.86047101      16.87626362      16.85379279      16.87100768      16.93793130      16.99817061      16.90710366      16.93722332      16.89168984      16.90674967      16.88643390      16.90221769      16.92815936      16.98004270      16.74081278      16.80854440      16.84241021      16.85962510      16.82632327      16.85049891
        16.77637053      16.82472181      16.67646503      16.77316761      16.88055861      16.89634240      16.87143242      16.88912380      16.91640878      16.86658883      16.90197158      16.95654154      16.85690165      16.92766714      17.08380938      17.19929171      17.03680706      17.14937687      17.32655525      17.46743393
        17.53591156      29.13104439      29.07961845      29.05769539      29.05769539      29.05769539      22.77177620      22.77177620      19.48368263      19.48368263      18.35332870      17.95162964      17.41928864      16.86587048      16.66145897      16.63155079      16.63000774      16.68673801      16.62832046      16.77183342
        16.65499830      16.99902058      16.76642036      16.58661640      16.55740762      16.58577275      16.55656397      16.52819884      16.49899006      16.52735519      16.49814641      16.56990290      16.52651155      16.49730277      16.52566791      16.49645913      16.45475507      16.39633751      16.46809399      16.43888521
        16.46725035      16.43804157      16.39465022      16.56821561      16.50979805      16.56652832      16.50811076      16.46640670      16.43719792      16.46556306      16.43635428      16.40798914      16.37878036      16.40714550      16.37793672      16.44969320      16.39127564      16.36601770      16.36379564      16.36433041
        16.36210835      16.35961890      16.36362046      16.36250943      16.36277682      16.36166579      16.36042106      16.36193317      16.36082214      16.36108953      16.35997850      16.35971111      16.35860008      16.35886747      16.35775644      16.35819900      16.35597694      16.35748905      16.35637802      16.35664541
        16.35553437      16.35428965      16.56382179      16.44698668      16.61851358      16.51538610      16.35899770      16.35677564      16.39319742      16.35454667      16.35566634      16.35455531      16.35455185      16.35344082      16.35344428      16.35233325      16.35232979      16.35121876      16.35232460      16.35010254
        16.42517161      16.34787011      16.35517478      16.41170382      16.35375488      16.35153282      16.35206759      16.34984553      16.34735608      16.47665405      16.35122222      16.35011119      16.35010773      16.34899670      16.34788740      16.34899324      16.34788221      16.34787875      16.34676772      16.34677118
        16.34566015      16.34565669      16.34454566      16.34566534      16.34344327      16.34343636      16.34121430      16.34565151      16.34454221      16.34343117      16.34342772      16.34231669      16.34342253      16.34231323      16.34120220      16.34119874      16.34008771      16.34120739      16.33898532      16.34009117
        16.33898014      16.33897668      16.33786565      16.33675635      16.38956904      16.48627162      16.38511109      16.48181367      16.67005920      16.83752728      16.62909651      16.76749420      17.01331902      17.23012924      17.38236427      17.45310402      29.45598602      29.41781807      29.39679718      29.39679718
        29.39679718      29.39679718      19.48368263      18.15112877      18.15112877      18.15112877      17.90538597      17.58636427      17.33993435      17.62577963      17.42885971      17.13894081      17.02317572      17.19363260      17.09313583      17.03525329      17.12048173      17.07023335      17.04129207      17.08390629
        17.05496502      16.90687561      16.79004049      16.97710323      16.91868567      17.01221704      16.98300827      17.02588999      17.00010812      16.95288539      16.85843992      17.23809528      17.14271307      17.09502196      17.06608069      17.10358036      17.07463908      17.15982985      17.10194731      17.27232885
        17.15656376      17.03871912      17.01293725      17.04727751      17.02149564      16.97854364      17.04722416      16.99566042      16.90975642      17.04711747      16.94398999      16.66954899      16.49357104      16.41626954      16.56197047      16.48466897      16.77218199      16.59086895      16.34119356      16.33897150
        16.37539327      16.33674252      16.33786219      16.33675116      16.33674771      16.33563668      16.33452737      16.33563322      16.33452219      16.33451873      16.33340770      16.33341116      16.33230013      16.33229667      16.33118564      16.40736747      16.33229148      16.33118218      16.33007115      16.33006769
        16.32895666      16.36649120      16.32895321      16.32784218      16.34605306      16.32672769      16.35759199      16.40594327      16.35536301      16.40371430      16.47735572      16.35313404      16.40148532      16.33937448      16.36355013      16.33825999      16.35516804      16.38472116      16.44382739      16.45824194
        16.39192843      16.35327768      16.40860319      16.35030866      16.49159145      16.37500238      16.33332670      16.35023475      16.33184218      16.34875023      16.37485456      16.33035767      16.34726572      16.32887316      16.34578121      16.36417377      16.38108182      16.36268926      16.37959731      16.40867066
        16.44248676      16.40570164      16.43951774      16.33510041      16.36120474      16.37811279      16.35972023      16.37662828      16.33213139      16.35823572      16.37514377      16.35675120      16.37365925      16.40273261      16.43654871      16.39205182      16.40895987      16.39056730      16.40747535      16.43357968
        16.56203985      16.70043755      16.49172640      16.55935860      16.48578835      16.48291206      16.62780809      16.88334274      17.11965179      17.28190041      17.36550140      29.65055084      29.65072823      29.64287567      29.64287567      29.64287567      29.64287567      18.22188187      18.22188187      18.22188187
        18.07726479      17.87904739      17.57695007      17.26579666      17.04690409      17.29940605      17.09722328      16.83888102      16.65756798      16.88920021      16.68267202      16.48565340      16.36906433      16.47971535      16.36312628      16.32916236      16.36297846      16.32619333      16.36000943      16.38908279
        16.40599084      16.38759828      16.40450633      16.43061066      16.38611376      16.40302181      16.38462925      16.38391018      16.39238739      16.32322431      16.35704041      16.32025528      16.31881714      16.36551762      16.36479855      16.34640598      16.34568691      16.35416412      16.32729435      16.32657528
        16.30818272      16.30746365      16.31594086      16.49226737      16.37567830      16.52330947      16.43628097      16.30027437      16.29883623      16.33057570      16.29709768      16.29819226      16.29747319      16.29732299      16.29660392      16.29595995      16.29645371      16.29573464      16.29558444      16.29486537
        16.29501557      16.29429650      16.29414630      16.29342723      16.35928869      16.29392099      16.29327703      16.29255795      16.29240775      16.29168868      16.32422233      16.29153848      16.29081941      16.30668914      16.28995013      16.40934181      16.40646553      16.33289528      16.33001900      16.47491503
        16.29452181      16.29308367      16.29278326      16.29134512      16.29005718      16.29104471      16.28960657      16.29010034      16.28938127      16.28923106      16.28851199      16.28786802      16.28658009      16.39499140      16.72280121      16.98460770      17.17679787      17.26653290      29.78741264      29.79120827
        29.79724503      29.79724503      29.79724503      29.79724503      18.22188187      18.22188187      18.22188187      18.09751320      17.87017059      17.58147621      17.25214386      16.89238739      16.57069921      16.41989136      16.35452366      16.32104564      16.38482499      16.35134697      16.48049402      16.41353798
        16.64705181      16.51867032      16.45171428      16.53442025      16.46746421      16.28836179      16.28764272      16.30351245      16.28677344      16.28612947      16.31866312      16.30192411      16.33381379      16.31707478      16.28518510      16.28446603      16.30033576      16.28359675      16.28469133      16.28325319
        16.28295279      16.28151464      16.34817028      16.31548643      16.29874742      16.33063710      16.31389809      16.37847161      16.34578776      16.32904875      16.36093843      16.34419942      16.28121424      16.27977610      16.31230974      16.29557073      16.32746041      16.31072140      16.27803755      16.33572030
        16.44383121      16.33224320      16.40101743      16.39755976      16.36408174      16.40543473      16.37195671      16.33700448      16.32026547      16.34094197      16.32420295      16.30352646      16.28678745      16.30746394      16.28563362      16.33847868      16.30631012      16.28447980      16.30515629      16.28332597
        16.40050817      16.33617103      16.29251039      16.33386338      16.29020274      16.27448356      16.30887067      16.27315873      16.27234691      16.27200490      16.27119309      16.27055228      16.34129214      16.27085108      16.27003926      16.26969725      16.26888543      16.26922745      16.26841563      16.26807362
        16.26726180      16.26756060      16.26691979      16.26610798      16.26576596      16.26495415      16.26662099      16.30100811      16.26431334      16.26268971      16.52558565      16.66903114      16.41006637      16.47884059      16.33342957      16.40220380      16.54958057      16.85023117      17.07296371      17.18271446
        29.86990738      29.87284279      29.87556076      29.87556076      29.87556076      29.87556076      18.24111938      18.24111938      18.24111938      18.10757065      17.87798882      17.59575653      17.26358223      16.92336845      16.67855167      16.52456713      16.68314743      16.51196575      16.39589286      16.30857158
        16.39127755      16.30395627      16.26525295      16.26461214      16.26380032      16.26345831      16.26264650      16.26294529      16.26132166      16.26298851      16.26217669      16.26183468      16.26102287      16.26038206      16.26068085      16.25986904      16.25952703      16.25871521      16.25905722      16.25824541
        16.25790340      16.25709158      16.25867200      16.25739038      16.25674957      16.25593776      16.25559574      16.25478393      16.25508273      16.25345910      16.33732319      16.25237131      16.24912405      16.24438524      16.24113798      16.25875843      16.29314554      16.25645077      16.25482714      16.32556701
        16.25512594      16.25431412      16.25397211      16.25316030      16.25251949      16.25281829      16.25200647      16.25166446      16.25085264      16.25119466      16.25038284      16.25004083      16.24922901      16.25089586      16.28528297      16.24858820      16.24696457      16.39728975      16.47196102      16.32065296
        16.44048643      16.24868512      16.24846566      16.24765384      16.24646914      16.24565732      16.24469209      16.24447262      16.24366081      16.24247611      16.24166429      16.24543786      16.24381423      16.24144483      16.23936319      16.24069905      16.24047959      16.23966777      16.23848307      16.23744226
        16.23670602      16.23462439      16.23862696      16.23758614      16.23640144      16.23536062      16.23491216      16.23417592      16.23313510      16.23195040      16.23090959      16.23046112      16.30380249      16.42363596      16.29490042      16.42140961      16.63597393      16.82176781      16.60227299      16.78499889
        16.98817444      17.10676384      29.88333321      29.88676834      29.88324165      29.88324165      29.88324165      29.88324165      18.27764511      18.27764511      18.27764511      18.13033295      17.86214828      17.55274582      17.23132133      16.91077042      16.67310619      16.50192451      16.63788319      16.53766155