# File generated by Flopy version 3.3.6 on 10/27/2022 at 08:48:22.
BEGIN options
  BUDGET  FILEOUT  project.cbc
  HEAD  FILEOUT  project.hds
END options

BEGIN period  1
  SAVE  HEAD  ALL
  SAVE  BUDGET  ALL
END period  1

