# File generated by Flopy version 3.3.6 on 10/27/2022 at 08:48:21.
BEGIN options
  PRINT_OPTION  all
END options

BEGIN nonlinear
  OUTER_MAXIMUM  200
END nonlinear

BEGIN linear
  INNER_MAXIMUM  100
  LINEAR_ACCELERATION  bicgstab
END linear

