# File generated by Flopy version 3.3.6 on 10/27/2022 at 08:48:22.
BEGIN options
END options

BEGIN dimensions
  MAXBOUND  6
END dimensions

BEGIN period  1
  3 1004    -708.48000000
  3 1221    -354.24000000
  3 2563    -336.96000000
  3 3222     -71.71200000
  3 3605     -62.20800000
  3 4386    -371.52000000
END period  1

